
Actelion Java MolfileCreator 2.0

  0  0  0  0  0  0              0 V3000
M  V30 BEGIN CTAB
M  V30 COUNTS 0 0 0 0 0
M  V30 BEGIN ATOM
M  V30 END ATOM
M  V30 BEGIN BOND
M  V30 END BOND
M  V30 END CTAB
M  END
>  <Column 1>
No

>  <Column 2>
Rack

>  <Column 3>
Position

>  <Column 4>
MMV ID

>  <Column 5>
Concentration

>  <Column 6>
DISEASE AREA

>  <Column 7>
SALT COEFF

>  <Column 8>
SALT NAME

>  <Column 9>
TRIVIAL  NAME

>  <Column 10>
SMILES

>  <Column 11>
ChEMBL ID

>  <Column 12>
LIT. REF

>  <Column 13>
MW

>  <Column 14>
FORMULA

>  <Tox-Glu>
Experimental code

>  <Column 15>
%
4uM
average

>  <Column 16>
%
10uM
average

>  <Column 17>
%
30uM
average

>  <Column 18>
%
100uM
average

>  <Column 19>
comment

>  <Tox-Gal>
Experimental code

>  <Column 20>
%
4uM
average

>  <Column 21>
%
10uM
average

>  <Column 22>
%
30uM
average

>  <Column 23>
%
100uM
average

>  <Column 24>
comment

>  <Column 25>


>  <PAMPA>
Experimental code

>  <Column 26>
pH7.4 (nm/sec)
10uM

>  <Column 27>
Note

>  <Column 28>


>  <Mouse>
Experimental code

>  <Column 29>
Clearance (uL/min/mg)
1uM

>  <Column 30>
Note

$$$$
Compound 2
Actelion Java MolfileCreator 2.0

  0  0  0  0  0  0              0 V3000
M  V30 BEGIN CTAB
M  V30 COUNTS 22 25 0 0 0
M  V30 BEGIN ATOM
M  V30 1 Cl 1.299 0.0 0.0 0
M  V30 2 C 0.0 -0.75 0.0 0
M  V30 3 C -1.299 0.0 0.0 0
M  V30 4 C 0.0 -2.2499 0.0 0
M  V30 5 C -2.598 -0.7499 0.0 0
M  V30 6 C -1.0754 1.4832 0.0 0 CFG=1
M  V30 7 C -1.299 -2.9999 0.0 0
M  V30 8 C -2.598 -2.2499 0.0 0
M  V30 9 C -3.9943 -0.2019 0.0 0
M  V30 10 N 0.3578 1.9253 0.0 0
M  V30 11 C -2.0957 2.5828 0.0 0
M  V30 12 Cl -1.299 -4.4999 0.0 0
M  V30 13 C -4.4365 1.2313 0.0 0
M  V30 14 C 1.558 1.0256 0.0 0
M  V30 15 C 0.8426 3.3448 0.0 0
M  V30 16 C -3.5915 2.4707 0.0 0
M  V30 17 C -1.4449 3.9342 0.0 0
M  V30 18 N 2.7846 1.889 0.0 0
M  V30 19 C 2.3425 3.3224 0.0 0
M  V30 20 C -4.4365 3.71 0.0 0
M  V30 21 C -2.2898 5.1736 0.0 0
M  V30 22 C -3.7856 5.0615 0.0 0
M  V30 END ATOM
M  V30 BEGIN BOND
M  V30 1 1 1 2
M  V30 2 2 2 3
M  V30 3 1 2 4
M  V30 4 1 3 5
M  V30 5 1 6 3
M  V30 6 2 4 7
M  V30 7 2 5 8
M  V30 8 1 5 9
M  V30 9 1 6 10 CFG=3
M  V30 10 1 6 11
M  V30 11 1 7 12
M  V30 12 1 9 13
M  V30 13 1 10 14
M  V30 14 1 10 15
M  V30 15 2 11 16
M  V30 16 1 11 17
M  V30 17 2 14 18
M  V30 18 2 15 19
M  V30 19 1 16 20
M  V30 20 2 17 21
M  V30 21 2 20 22
M  V30 22 1 7 8
M  V30 23 1 13 16
M  V30 24 1 18 19
M  V30 25 1 21 22
M  V30 END BOND
M  V30 BEGIN COLLECTION
M  V30 MDLV30/STERAC1 ATOMS=(1 6)
M  V30 END COLLECTION
M  V30 END CTAB
M  END
>  <Column 1>
1

>  <Column 2>
PandemicResponseBox - Plate A

>  <Column 3>
A02

>  <Column 4>
MMV1634492

>  <Column 5>
10 mM

>  <Column 6>
ANTIFUNGALS

>  <Column 7>
1

>  <Column 8>
Nitric acid

>  <Column 9>
Eberconazole

>  <Column 10>
ClC1=C2C(=CC(=C1)Cl)CCC4=C(C2[N]3C=NC=C3)C=CC=C4

>  <Column 11>
CHEMBL558722

>  <Column 12>


>  <Column 13>
392.2

>  <Column 14>
C18 H14 Cl2 N2

>  <Tox-Glu>
ATCTOX

>  <Column 15>


>  <Column 16>
89 

>  <Column 17>
0 

>  <Column 18>
1 

>  <Column 19>


>  <Tox-Gal>
CTOXGAL

>  <Column 20>


>  <Column 21>
86 

>  <Column 22>
0 

>  <Column 23>
1 

>  <Column 24>


>  <Column 25>


>  <PAMPA>
PAMPA

>  <Column 26>
360

>  <Column 27>


>  <Column 28>


>  <Mouse>
ATMETMOU

>  <Column 29>
72

>  <Column 30>


$$$$
Compound 3
Actelion Java MolfileCreator 2.0

  0  0  0  0  0  0              0 V3000
M  V30 BEGIN CTAB
M  V30 COUNTS 20 21 0 0 0
M  V30 BEGIN ATOM
M  V30 1 S 9.0932 -3.0 0.0 0
M  V30 2 O 10.5932 -3.0 0.0 0
M  V30 3 O 9.8432 -1.7009 0.0 0
M  V30 4 N 9.0932 -4.5 0.0 0
M  V30 5 C 7.7942 -2.25 0.0 0
M  V30 6 C 10.3923 -5.25 0.0 0
M  V30 7 C 7.7942 -0.75 0.0 0
M  V30 8 C 6.4952 -3.0 0.0 0
M  V30 9 N 10.5491 -6.7417 0.0 0
M  V30 10 C 11.7626 -4.6399 0.0 0
M  V30 11 C 6.4952 0.0 0.0 0
M  V30 12 C 5.1961 -2.25 0.0 0
M  V30 13 O 12.0163 -7.0536 0.0 0
M  V30 14 C 12.7663 -5.7546 0.0 0
M  V30 15 C 5.1961 -0.75 0.0 0
M  V30 16 C 14.2581 -5.5978 0.0 0
M  V30 17 C 3.8971 0.0 0.0 0
M  V30 18 C 2.598 -0.75 0.0 0
M  V30 19 C 1.299 0.0 0.0 0
M  V30 20 C 0.0 -0.75 0.0 0
M  V30 END ATOM
M  V30 BEGIN BOND
M  V30 1 2 1 2
M  V30 2 2 1 3
M  V30 3 1 1 4
M  V30 4 1 1 5
M  V30 5 1 4 6
M  V30 6 2 5 7
M  V30 7 1 5 8
M  V30 8 2 6 9
M  V30 9 1 6 10
M  V30 10 1 7 11
M  V30 11 2 8 12
M  V30 12 1 9 13
M  V30 13 2 10 14
M  V30 14 2 11 15
M  V30 15 1 14 16
M  V30 16 1 15 17
M  V30 17 1 17 18
M  V30 18 1 18 19
M  V30 19 1 19 20
M  V30 20 1 12 15
M  V30 21 1 13 14
M  V30 END BOND
M  V30 END CTAB
M  END
>  <Column 1>
2

>  <Column 2>
PandemicResponseBox - Plate A

>  <Column 3>
B02

>  <Column 4>
MMV1782108

>  <Column 5>
10 mM

>  <Column 6>
ANTIFUNGALS

>  <Column 7>


>  <Column 8>
None

>  <Column 9>


>  <Column 10>
[S](=O)(=O)(NC1=NOC(=C1)C)C2=CC=C(CCCC)C=C2

>  <Column 11>
CHEMBL1382726

>  <Column 12>
WO 2004021997 

>  <Column 13>
294.4

>  <Column 14>
C14 H18 N2 O3 S

>  <Tox-Glu>
ATCTOX

>  <Column 15>


>  <Column 16>
103 

>  <Column 17>
104 

>  <Column 18>
93 

>  <Column 19>


>  <Tox-Gal>
CTOXGAL

>  <Column 20>


>  <Column 21>
99 

>  <Column 22>
97 

>  <Column 23>
99 

>  <Column 24>


>  <Column 25>


>  <PAMPA>
PAMPA

>  <Column 26>
81

>  <Column 27>


>  <Column 28>


>  <Mouse>
ATMETMOU

>  <Column 29>
231

>  <Column 30>


$$$$
Compound 4
Actelion Java MolfileCreator 2.0

  0  0  0  0  0  0              0 V3000
M  V30 BEGIN CTAB
M  V30 COUNTS 51 55 0 0 0
M  V30 BEGIN ATOM
M  V30 1 S 13.3219 -14.7406 0.0 0
M  V30 2 C 12.5705 -13.4391 0.0 0
M  V30 3 C 14.7918 -14.4281 0.0 0
M  V30 4 N 13.5761 -12.3224 0.0 0
M  V30 5 C 11.076 -13.2821 0.0 0 CFG=1
M  V30 6 C 14.9489 -12.9336 0.0 0
M  V30 7 C 10.4648 -11.9092 0.0 0 CFG=1
M  V30 8 C 10.5149 -14.6911 0.0 0
M  V30 9 C 16.2503 -12.1822 0.0 0
M  V30 10 O 8.9703 -11.7521 0.0 0
M  V30 11 C 9.5815 -13.125 0.0 0
M  V30 12 C 11.3481 -10.6935 0.0 0
M  V30 13 C 16.2503 -10.6795 0.0 0
M  V30 14 C 17.5517 -12.9336 0.0 0
M  V30 15 C 8.087 -12.9679 0.0 0
M  V30 16 C 10.0159 -14.4274 0.0 0
M  V30 17 N 10.7369 -9.3206 0.0 0
M  V30 18 C 17.5517 -9.9281 0.0 0
M  V30 19 C 18.8532 -12.1822 0.0 0
M  V30 20 F 7.4758 -11.5951 0.0 0
M  V30 21 C 7.2037 -14.1836 0.0 0
M  V30 22 C 9.3094 -15.7136 0.0 0
M  V30 23 N 11.4882 -8.0192 0.0 0
M  V30 24 C 9.267 -9.0082 0.0 0
M  V30 25 C 18.8532 -10.6795 0.0 0
M  V30 26 C 7.8149 -15.5565 0.0 0
M  V30 27 F 9.9207 -17.0864 0.0 0
M  V30 28 C 10.4827 -6.9025 0.0 0
M  V30 29 N 9.1099 -7.5137 0.0 0 CHG=1
M  V30 30 C 20.1546 -9.9281 0.0 0
M  V30 31 C 7.8085 -6.7623 0.0 0
M  V30 32 N 21.456 -9.1767 0.0 0
M  V30 33 O 7.8085 -5.2596 0.0 0
M  V30 34 C 6.507 -7.5137 0.0 0
M  V30 35 C 6.507 -4.5082 0.0 0
M  V30 36 O 5.2056 -5.2596 0.0 0
M  V30 37 N 6.507 -3.0054 0.0 0
M  V30 38 C 7.8085 -2.2541 0.0 0
M  V30 39 C 5.2056 -2.2541 0.0 0
M  V30 40 N 9.1099 -3.0054 0.0 0
M  V30 41 C 7.8085 -0.7513 0.0 0
M  V30 42 C 10.4113 -2.2541 0.0 0
M  V30 43 C 9.1099 0.0 0.0 0
M  V30 44 C 6.507 0.0 0.0 0
M  V30 45 C 10.4113 -0.7513 0.0 0
M  V30 46 O 5.2056 -0.7513 0.0 0
M  V30 47 C 3.9042 0.0 0.0 0
M  V30 48 O 3.9042 1.5027 0.0 0
M  V30 49 C 2.6028 -0.7513 0.0 0
M  V30 50 N 1.3014 0.0 0.0 0
M  V30 51 C 0.0 -0.7513 0.0 0
M  V30 END ATOM
M  V30 BEGIN BOND
M  V30 1 1 1 2
M  V30 2 1 1 3
M  V30 3 2 2 4
M  V30 4 1 5 2
M  V30 5 2 3 6
M  V30 6 1 7 5
M  V30 7 1 5 8 CFG=3
M  V30 8 1 6 9
M  V30 9 1 7 10
M  V30 10 1 7 11 CFG=1
M  V30 11 1 7 12
M  V30 12 2 9 13
M  V30 13 1 9 14
M  V30 14 2 11 15
M  V30 15 1 11 16
M  V30 16 1 12 17
M  V30 17 1 13 18
M  V30 18 2 14 19
M  V30 19 1 15 20
M  V30 20 1 15 21
M  V30 21 2 16 22
M  V30 22 1 17 23
M  V30 23 1 17 24
M  V30 24 2 18 25
M  V30 25 2 21 26
M  V30 26 1 22 27
M  V30 27 2 23 28
M  V30 28 2 24 29
M  V30 29 1 25 30
M  V30 30 1 29 31
M  V30 31 3 30 32
M  V30 32 1 31 33
M  V30 33 1 31 34
M  V30 34 1 33 35
M  V30 35 2 35 36
M  V30 36 1 35 37
M  V30 37 1 37 38
M  V30 38 1 37 39
M  V30 39 2 38 40
M  V30 40 1 38 41
M  V30 41 1 40 42
M  V30 42 2 41 43
M  V30 43 1 41 44
M  V30 44 2 42 45
M  V30 45 1 44 46
M  V30 46 1 46 47
M  V30 47 2 47 48
M  V30 48 1 47 49
M  V30 49 1 49 50
M  V30 50 1 50 51
M  V30 51 1 4 6
M  V30 52 1 19 25
M  V30 53 1 22 26
M  V30 54 1 28 29
M  V30 55 1 43 45
M  V30 END BOND
M  V30 BEGIN COLLECTION
M  V30 MDLV30/STEABS ATOMS=(2 5 7)
M  V30 END COLLECTION
M  V30 END CTAB
M  END
>  <Column 1>
3

>  <Column 2>
PandemicResponseBox - Plate A

>  <Column 3>
C02

>  <Column 4>
MMV1634494

>  <Column 5>
10 mM

>  <Column 6>
ANTIFUNGALS

>  <Column 7>
1

>  <Column 8>
Hydrogen sulfate

>  <Column 9>
Isavuconazonium

>  <Column 10>
CNCC(=O)OCC1=CC=CN=C1N(C)C(=O)OC(C)[N+]2=C[N](C[C@@](O)([C@@H](C)C3=NC(=CS3)C4=CC=C(C=C4)C#N)C5=C(F)C=CC(=C5)F)N=C2

>  <Column 11>
CHEMBL1183349

>  <Column 12>


>  <Column 13>
814.9

>  <Column 14>
C35 H35 F2 N8 O5 S

>  <Tox-Glu>
ATCTOX

>  <Column 15>


>  <Column 16>
97 

>  <Column 17>
74 

>  <Column 18>
3 

>  <Column 19>


>  <Tox-Gal>
CTOXGAL

>  <Column 20>


>  <Column 21>
90 

>  <Column 22>
0 

>  <Column 23>
1 

>  <Column 24>


>  <Column 25>


>  <PAMPA>
PAMPA

>  <Column 26>
<1

>  <Column 27>


>  <Column 28>


>  <Mouse>
ATMETMOU

>  <Column 29>
144

>  <Column 30>


$$$$
Compound 5
Actelion Java MolfileCreator 2.0

  0  0  0  0  0  0              0 V3000
M  V30 BEGIN CTAB
M  V30 COUNTS 37 40 0 0 0
M  V30 BEGIN ATOM
M  V30 1 F 0.0 -2.25 0.0 0
M  V30 2 C 1.299 -3.0 0.0 0
M  V30 3 C 2.598 -2.25 0.0 0
M  V30 4 C 1.299 -4.5 0.0 0
M  V30 5 C 3.8971 -3.0 0.0 0
M  V30 6 C 2.598 -0.75 0.0 0 CFG=2
M  V30 7 C 2.598 -5.25 0.0 0
M  V30 8 C 3.8971 -4.5 0.0 0
M  V30 9 O 3.8971 -1.5 0.0 0
M  V30 10 C 3.8971 0.0 0.0 0
M  V30 11 C 1.299 0.0 0.0 0
M  V30 12 F 2.598 -6.75 0.0 0
M  V30 13 F 4.6471 1.299 0.0 0
M  V30 14 F 3.1471 1.299 0.0 0
M  V30 15 C 5.1961 -0.75 0.0 0
M  V30 16 N 1.299 1.5 0.0 0
M  V30 17 N 5.1961 -2.25 0.0 0
M  V30 18 C 6.4951 0.0 0.0 0
M  V30 19 N 0.0855 2.3816 0.0 0
M  V30 20 C 2.5125 2.3816 0.0 0
M  V30 21 C 6.4951 -3.0 0.0 0
M  V30 22 C 7.7942 -0.75 0.0 0
M  V30 23 N 0.549 3.8082 0.0 0
M  V30 24 N 2.049 3.8082 0.0 0
M  V30 25 C 7.7942 -2.25 0.0 0
M  V30 26 C 9.0932 -3.0 0.0 0
M  V30 27 C 9.0932 -4.5 0.0 0
M  V30 28 C 10.3923 -2.25 0.0 0
M  V30 29 C 10.3923 -5.25 0.0 0
M  V30 30 C 11.6913 -3.0 0.0 0
M  V30 31 C 11.6913 -4.5 0.0 0
M  V30 32 O 12.9903 -5.25 0.0 0
M  V30 33 C 12.9903 -6.75 0.0 0
M  V30 34 C 14.2894 -7.5 0.0 0
M  V30 35 F 15.0394 -6.2009 0.0 0
M  V30 36 F 15.5884 -8.25 0.0 0
M  V30 37 F 13.5394 -8.799 0.0 0
M  V30 END ATOM
M  V30 BEGIN BOND
M  V30 1 1 1 2
M  V30 2 2 2 3
M  V30 3 1 2 4
M  V30 4 1 3 5
M  V30 5 1 6 3
M  V30 6 2 4 7
M  V30 7 2 5 8
M  V30 8 1 6 9 CFG=3
M  V30 9 1 6 10
M  V30 10 1 6 11
M  V30 11 1 7 12
M  V30 12 1 10 13
M  V30 13 1 10 14
M  V30 14 1 10 15
M  V30 15 1 11 16
M  V30 16 2 15 17
M  V30 17 1 15 18
M  V30 18 1 16 19
M  V30 19 1 16 20
M  V30 20 1 17 21
M  V30 21 2 18 22
M  V30 22 2 19 23
M  V30 23 2 20 24
M  V30 24 2 21 25
M  V30 25 1 25 26
M  V30 26 2 26 27
M  V30 27 1 26 28
M  V30 28 1 27 29
M  V30 29 2 28 30
M  V30 30 2 29 31
M  V30 31 1 31 32
M  V30 32 1 32 33
M  V30 33 1 33 34
M  V30 34 1 34 35
M  V30 35 1 34 36
M  V30 36 1 34 37
M  V30 37 1 7 8
M  V30 38 1 22 25
M  V30 39 1 23 24
M  V30 40 1 30 31
M  V30 END BOND
M  V30 BEGIN COLLECTION
M  V30 MDLV30/STEABS ATOMS=(1 6)
M  V30 END COLLECTION
M  V30 END CTAB
M  END
>  <Column 1>
4

>  <Column 2>
PandemicResponseBox - Plate A

>  <Column 3>
D02

>  <Column 4>
MMV1634386

>  <Column 5>
10 mM

>  <Column 6>
ANTIFUNGALS

>  <Column 7>


>  <Column 8>
None

>  <Column 9>


>  <Column 10>
FC1=C(C=CC(=C1)F)[C@](O)(C(F)(F)C3=NC=C(C2=CC=C(OCC(F)(F)F)C=C2)C=C3)C[N]4N=NN=C4

>  <Column 11>
CHEMBL3311228

>  <Column 12>


>  <Column 13>
527.4

>  <Column 14>
C23 H16 F7 N5 O2

>  <Tox-Glu>
ATCTOX

>  <Column 15>


>  <Column 16>
58 

>  <Column 17>
4 

>  <Column 18>
3 

>  <Column 19>


>  <Tox-Gal>
CTOXGAL

>  <Column 20>


>  <Column 21>
51 

>  <Column 22>
0 

>  <Column 23>
0 

>  <Column 24>


>  <Column 25>


>  <PAMPA>
PAMPA

>  <Column 26>
86

>  <Column 27>


>  <Column 28>


>  <Mouse>
ATMETMOU

>  <Column 29>
-10

>  <Column 30>


$$$$
Compound 6
Actelion Java MolfileCreator 2.0

  0  0  0  0  0  0              0 V3000
M  V30 BEGIN CTAB
M  V30 COUNTS 49 55 0 0 0
M  V30 BEGIN ATOM
M  V30 1 Cl 2.558 1.3343 0.0 0
M  V30 2 C 3.0956 2.7347 0.0 0
M  V30 3 C 4.5771 2.9693 0.0 0
M  V30 4 C 2.1516 3.9004 0.0 0
M  V30 5 C 5.1146 4.3697 0.0 0
M  V30 6 C 5.5211 1.8036 0.0 0
M  V30 7 C 2.6891 5.3008 0.0 0
M  V30 8 C 4.1707 5.5354 0.0 0
M  V30 9 O 4.0539 1.4917 0.0 0
M  V30 10 O 6.2711 0.5046 0.0 0
M  V30 11 C 6.1312 3.1739 0.0 0
M  V30 12 Cl 1.7452 6.4665 0.0 0
M  V30 13 C 3.8971 0.0 0.0 0
M  V30 14 C 5.2674 -0.6101 0.0 0
M  V30 15 N 7.623 3.3307 0.0 0
M  V30 16 C 2.598 -0.75 0.0 0
M  V30 17 N 8.6267 2.216 0.0 0
M  V30 18 C 8.373 4.6297 0.0 0
M  V30 19 O 1.299 0.0 0.0 0
M  V30 20 C 9.997 2.8261 0.0 0
M  V30 21 N 9.8402 4.3179 0.0 0
M  V30 22 C 0.0 -0.75 0.0 0
M  V30 23 C -1.299 0.0 0.0 0
M  V30 24 C 0.0 -2.2499 0.0 0
M  V30 25 C -2.598 -0.7499 0.0 0
M  V30 26 C -1.299 -2.9999 0.0 0
M  V30 27 C -2.598 -2.2499 0.0 0
M  V30 28 N -3.8971 -2.9999 0.0 0
M  V30 29 C -5.1961 -2.2499 0.0 0
M  V30 30 C -3.8971 -4.4999 0.0 0
M  V30 31 C -6.4951 -2.9999 0.0 0
M  V30 32 C -5.1961 -5.2499 0.0 0
M  V30 33 N -6.4951 -4.4999 0.0 0
M  V30 34 C -7.7942 -5.2499 0.0 0
M  V30 35 C -9.0932 -4.4999 0.0 0
M  V30 36 C -7.7942 -6.7499 0.0 0
M  V30 37 C -10.3923 -5.2499 0.0 0
M  V30 38 C -9.0932 -7.4999 0.0 0
M  V30 39 C -10.3923 -6.7499 0.0 0
M  V30 40 N -11.6913 -7.4999 0.0 0
M  V30 41 C -13.0616 -6.8898 0.0 0
M  V30 42 C -11.8481 -8.9917 0.0 0
M  V30 43 O -13.3735 -5.4226 0.0 0
M  V30 44 N -14.0653 -8.0046 0.0 0
M  V30 45 N -13.3153 -9.3036 0.0 0
M  V30 46 C -15.5571 -7.8478 0.0 0
M  V30 47 C -16.1672 -6.4775 0.0 0
M  V30 48 C -16.4388 -9.0613 0.0 0
M  V30 49 C -17.659 -6.3207 0.0 0
M  V30 END ATOM
M  V30 BEGIN BOND
M  V30 1 1 1 2
M  V30 2 2 2 3
M  V30 3 1 2 4
M  V30 4 1 3 5
M  V30 5 1 3 6
M  V30 6 2 4 7
M  V30 7 2 5 8
M  V30 8 1 6 9
M  V30 9 1 6 10
M  V30 10 1 6 11
M  V30 11 1 7 12
M  V30 12 1 9 13
M  V30 13 1 10 14
M  V30 14 1 11 15
M  V30 15 1 13 16
M  V30 16 1 15 17
M  V30 17 1 15 18
M  V30 18 1 16 19
M  V30 19 2 17 20
M  V30 20 2 18 21
M  V30 21 1 19 22
M  V30 22 2 22 23
M  V30 23 1 22 24
M  V30 24 1 23 25
M  V30 25 2 24 26
M  V30 26 2 25 27
M  V30 27 1 27 28
M  V30 28 1 28 29
M  V30 29 1 28 30
M  V30 30 1 29 31
M  V30 31 1 30 32
M  V30 32 1 31 33
M  V30 33 1 33 34
M  V30 34 2 34 35
M  V30 35 1 34 36
M  V30 36 1 35 37
M  V30 37 2 36 38
M  V30 38 2 37 39
M  V30 39 1 39 40
M  V30 40 1 40 41
M  V30 41 1 40 42
M  V30 42 2 41 43
M  V30 43 1 41 44
M  V30 44 2 42 45
M  V30 45 1 44 46
M  V30 46 1 46 47
M  V30 47 1 46 48
M  V30 48 1 47 49
M  V30 49 1 7 8
M  V30 50 1 13 14
M  V30 51 1 20 21
M  V30 52 1 26 27
M  V30 53 1 32 33
M  V30 54 1 38 39
M  V30 55 1 44 45
M  V30 END BOND
M  V30 END CTAB
M  END
>  <Column 1>
5

>  <Column 2>
PandemicResponseBox - Plate A

>  <Column 3>
E02

>  <Column 4>
MMV637528

>  <Column 5>
10 mM

>  <Column 6>
ANTIFUNGALS

>  <Column 7>


>  <Column 8>
None

>  <Column 9>
Itraconazole

>  <Column 10>
ClC1=C(C=CC(=C1)Cl)C6(OC(COC5=CC=C(N4CCN(C3=CC=C([N]2[C](=O)[N](C(CC)C)N=C2)C=C3)CC4)C=C5)CO6)C[N]7N=CN=C7

>  <Column 11>
CHEMBL22587

>  <Column 12>


>  <Column 13>
705.6

>  <Column 14>
C35H38Cl2N8O4

>  <Tox-Glu>
ATCTOX

>  <Column 15>


>  <Column 16>
86 

>  <Column 17>
81 

>  <Column 18>
77 

>  <Column 19>


>  <Tox-Gal>
CTOXGAL

>  <Column 20>


>  <Column 21>
86 

>  <Column 22>
81 

>  <Column 23>
87 

>  <Column 24>


>  <Column 25>


>  <PAMPA>
PAMPA

>  <Column 26>
239

>  <Column 27>


>  <Column 28>


>  <Mouse>
ATMETMOU

>  <Column 29>
42

>  <Column 30>


$$$$
Compound 7
Actelion Java MolfileCreator 2.0

  0  0  0  0  0  0              0 V3000
M  V30 BEGIN CTAB
M  V30 COUNTS 34 38 0 0 0
M  V30 BEGIN ATOM
M  V30 1 O 6.9282 -0.5 0.0 0
M  V30 2 C 6.0621 0.0 0.0 0
M  V30 3 N 5.1961 -0.5 0.0 0
M  V30 4 C 6.0621 0.9999 0.0 0
M  V30 5 C 4.3301 0.0 0.0 0 CFG=1
M  V30 6 C 6.8711 1.5877 0.0 0
M  V30 7 C 5.2531 1.5877 0.0 0
M  V30 8 C 3.4641 -0.5 0.0 0
M  V30 9 C 4.3301 1.0 0.0 0
M  V30 10 C 6.5621 2.5388 0.0 0
M  V30 11 C 5.5621 2.5388 0.0 0
M  V30 12 O 3.4641 -1.5 0.0 0
M  V30 13 N 2.598 0.0 0.0 0
M  V30 14 C 3.4641 1.5 0.0 0
M  V30 15 C 7.0621 3.4048 0.0 0
M  V30 16 C 5.0621 3.4048 0.0 0
M  V30 17 C 1.732 -0.5 0.0 0
M  V30 18 C 3.4641 2.5 0.0 0
M  V30 19 C 2.598 1.0 0.0 0
M  V30 20 C 6.5621 4.2708 0.0 0
M  V30 21 C 5.5621 4.2708 0.0 0
M  V30 22 C 0.866 0.0 0.0 0
M  V30 23 C 2.598 3.0 0.0 0
M  V30 24 C 4.3301 2.9999 0.0 0
M  V30 25 C 1.732 1.5 0.0 0
M  V30 26 C 0.0 -0.5 0.0 0
M  V30 27 C 1.732 2.5 0.0 0
M  V30 28 C 2.598 4.0 0.0 0
M  V30 29 C 4.3301 3.9999 0.0 0
M  V30 30 N -0.9135 -0.0932 0.0 0
M  V30 31 C -0.1045 -1.4945 0.0 0
M  V30 32 C 3.4641 4.5 0.0 0
M  V30 33 C -1.5826 -0.8364 0.0 0
M  V30 34 N -1.0826 -1.7024 0.0 0
M  V30 END ATOM
M  V30 BEGIN BOND
M  V30 1 2 1 2
M  V30 2 1 2 3
M  V30 3 1 2 4
M  V30 4 1 5 3 CFG=1
M  V30 5 1 4 6
M  V30 6 1 4 7
M  V30 7 1 5 8
M  V30 8 1 5 9
M  V30 9 1 6 10
M  V30 10 1 7 11
M  V30 11 2 8 12
M  V30 12 1 8 13
M  V30 13 1 9 14
M  V30 14 1 10 15
M  V30 15 1 11 16
M  V30 16 1 13 17
M  V30 17 1 14 18
M  V30 18 2 14 19
M  V30 19 2 15 20
M  V30 20 2 16 21
M  V30 21 1 17 22
M  V30 22 1 18 23
M  V30 23 2 18 24
M  V30 24 1 19 25
M  V30 25 1 22 26
M  V30 26 1 23 27
M  V30 27 2 23 28
M  V30 28 1 24 29
M  V30 29 1 26 30
M  V30 30 2 26 31
M  V30 31 1 28 32
M  V30 32 2 30 33
M  V30 33 1 31 34
M  V30 34 2 10 11
M  V30 35 1 20 21
M  V30 36 2 25 27
M  V30 37 2 29 32
M  V30 38 1 33 34
M  V30 END BOND
M  V30 BEGIN COLLECTION
M  V30 MDLV30/STEABS ATOMS=(1 5)
M  V30 END COLLECTION
M  V30 END CTAB
M  END
>  <Column 1>
6

>  <Column 2>
PandemicResponseBox - Plate A

>  <Column 3>
F02

>  <Column 4>
MMV1782109

>  <Column 5>
10 mM

>  <Column 6>
ANTIFUNGALS

>  <Column 7>


>  <Column 8>
None

>  <Column 9>


>  <Column 10>
O=C(N[C@@H](C(=O)NCCC1=C[NH]C=N1)CC2=CC=CC3=CC=CC=C23)C4CC5=C(C4)C=CC=C5

>  <Column 11>
CHEMBL347650

>  <Column 12>


>  <Column 13>
452.5

>  <Column 14>
C28 H28 N4 O2

>  <Tox-Glu>
ATCTOX

>  <Column 15>


>  <Column 16>
100 

>  <Column 17>
69 

>  <Column 18>
1 

>  <Column 19>


>  <Tox-Gal>
CTOXGAL

>  <Column 20>


>  <Column 21>
95 

>  <Column 22>
75 

>  <Column 23>
1 

>  <Column 24>


>  <Column 25>


>  <PAMPA>
PAMPA

>  <Column 26>
11

>  <Column 27>


>  <Column 28>


>  <Mouse>
ATMETMOU

>  <Column 29>
73

>  <Column 30>


$$$$
Compound 8
Actelion Java MolfileCreator 2.0

  0  0  0  0  0  0              0 V3000
M  V30 BEGIN CTAB
M  V30 COUNTS 12 12 0 0 0
M  V30 BEGIN ATOM
M  V30 1 Br 6.0412 -0.7318 0.0 0
M  V30 2 C 5.0467 -0.8364 0.0 0
M  V30 3 O 4.3776 -0.0932 0.0 0
M  V30 4 C 4.5467 -1.7024 0.0 0
M  V30 5 C 3.4641 -0.5 0.0 0
M  V30 6 C 3.5686 -1.4945 0.0 0
M  V30 7 C 2.598 0.0 0.0 0
M  V30 8 C 1.732 -0.5 0.0 0
M  V30 9 Br 1.732 -1.5 0.0 0
M  V30 10 N 0.866 0.0 0.0 0 CHG=1 VAL=5
M  V30 11 O 0.866 1.0 0.0 0
M  V30 12 O 0.0 -0.5 0.0 0 CHG=-1
M  V30 END ATOM
M  V30 BEGIN BOND
M  V30 1 1 1 2
M  V30 2 1 2 3
M  V30 3 2 2 4
M  V30 4 1 3 5
M  V30 5 1 4 6
M  V30 6 1 5 7
M  V30 7 2 7 8
M  V30 8 1 8 9
M  V30 9 1 8 10
M  V30 10 2 10 11
M  V30 11 1 10 12
M  V30 12 2 5 6
M  V30 END BOND
M  V30 END CTAB
M  END
>  <Column 1>
7

>  <Column 2>
PandemicResponseBox - Plate A

>  <Column 3>
G02

>  <Column 4>
MMV1645051

>  <Column 5>
10 mM

>  <Column 6>
ANTIFUNGALS

>  <Column 7>


>  <Column 8>
None

>  <Column 9>
Furvina

>  <Column 10>
BrC1=CC=C(O1)\C=C(/Br)[N](=O)=O

>  <Column 11>
CHEMBL2335230

>  <Column 12>
�Acta Farmaceutica Bonaerense�(2003),�22(1),�5-9.

>  <Column 13>
296.9

>  <Column 14>
C6 H3 Br2 N O3

>  <Tox-Glu>
ATCTOX

>  <Column 15>


>  <Column 16>
20 

>  <Column 17>
0 

>  <Column 18>
0 

>  <Column 19>


>  <Tox-Gal>
CTOXGAL

>  <Column 20>


>  <Column 21>
68 

>  <Column 22>
1 

>  <Column 23>
0 

>  <Column 24>


>  <Column 25>


>  <PAMPA>
PAMPA

>  <Column 26>
undetected

>  <Column 27>
low sensitivity

>  <Column 28>


>  <Mouse>
ATMETMOU

>  <Column 29>


>  <Column 30>
Not determined; Low sensitivity

$$$$
Compound 9
Actelion Java MolfileCreator 2.0

  0  0  0  0  0  0              0 V3000
M  V30 BEGIN CTAB
M  V30 COUNTS 24 26 0 0 0
M  V30 BEGIN ATOM
M  V30 1 Cl 4.3301 0.9999 0.0 0
M  V30 2 C 4.3301 0.0 0.0 0
M  V30 3 C 3.4641 -0.5 0.0 0
M  V30 4 C 5.1961 -0.5 0.0 0
M  V30 5 C 3.4641 -1.5 0.0 0
M  V30 6 C 2.598 0.0 0.0 0
M  V30 7 C 5.1961 -1.5 0.0 0
M  V30 8 C 4.3301 -2.0 0.0 0
M  V30 9 C 1.732 -0.5 0.0 0
M  V30 10 Cl 6.0621 -2.0 0.0 0
M  V30 11 N 1.732 -1.5 0.0 0
M  V30 12 C 0.866 0.0 0.0 0
M  V30 13 C 0.923 -2.0877 0.0 0
M  V30 14 C 2.541 -2.0877 0.0 0
M  V30 15 O 0.866 1.0 0.0 0
M  V30 16 C 0.0 -0.5 0.0 0
M  V30 17 N 1.232 -3.0388 0.0 0
M  V30 18 C 2.232 -3.0388 0.0 0
M  V30 19 C -0.866 0.0 0.0 0
M  V30 20 C 0.0 -1.4999 0.0 0
M  V30 21 C -1.732 -0.4999 0.0 0
M  V30 22 C -0.866 -1.9999 0.0 0
M  V30 23 C -1.732 -1.4999 0.0 0
M  V30 24 Cl -2.598 -1.9999 0.0 0
M  V30 END ATOM
M  V30 BEGIN BOND
M  V30 1 1 1 2
M  V30 2 2 2 3
M  V30 3 1 2 4
M  V30 4 1 3 5
M  V30 5 1 3 6
M  V30 6 2 4 7
M  V30 7 2 5 8
M  V30 8 2 6 9
M  V30 9 1 7 10
M  V30 10 1 9 11
M  V30 11 1 9 12
M  V30 12 1 11 13
M  V30 13 1 11 14
M  V30 14 2 12 15
M  V30 15 1 12 16
M  V30 16 2 13 17
M  V30 17 2 14 18
M  V30 18 2 16 19
M  V30 19 1 16 20
M  V30 20 1 19 21
M  V30 21 2 20 22
M  V30 22 2 21 23
M  V30 23 1 23 24
M  V30 24 1 7 8
M  V30 25 1 17 18
M  V30 26 1 22 23
M  V30 END BOND
M  V30 END CTAB
M  END
>  <Column 1>
8

>  <Column 2>
PandemicResponseBox - Plate A

>  <Column 3>
H02

>  <Column 4>
MMV1634491

>  <Column 5>
10 mM

>  <Column 6>
ANTIFUNGALS

>  <Column 7>


>  <Column 8>
None

>  <Column 9>


>  <Column 10>
ClC1=C(C=CC(=C1)Cl)\C=C(/[N]2C=NC=C2)C(=O)C3=CC=C(Cl)C=C3

>  <Column 11>
NA

>  <Column 12>
Yakugaku Zasshi�(1988),�108(10),�942-50

>  <Column 13>
377.7

>  <Column 14>
C18 H11 Cl3 N2 O

>  <Tox-Glu>
ATCTOX

>  <Column 15>


>  <Column 16>
0 

>  <Column 17>
0 

>  <Column 18>
1 

>  <Column 19>


>  <Tox-Gal>
CTOXGAL

>  <Column 20>


>  <Column 21>
0 

>  <Column 22>
0 

>  <Column 23>
1 

>  <Column 24>


>  <Column 25>


>  <PAMPA>
PAMPA

>  <Column 26>
295

>  <Column 27>


>  <Column 28>


>  <Mouse>
ATMETMOU

>  <Column 29>
170

>  <Column 30>


$$$$
Compound 10
Actelion Java MolfileCreator 2.0

  0  0  0  0  0  0              0 V3000
M  V30 BEGIN CTAB
M  V30 COUNTS 15 16 0 0 0
M  V30 BEGIN ATOM
M  V30 1 O 1.299 0.0 0.0 0
M  V30 2 C 0.0 -0.75 0.0 0
M  V30 3 N -1.299 0.0 0.0 0
M  V30 4 C 0.0 -2.25 0.0 0
M  V30 5 O -1.299 1.5 0.0 0
M  V30 6 C -2.598 -0.7499 0.0 0
M  V30 7 C -1.299 -2.9999 0.0 0
M  V30 8 C -2.598 -2.2499 0.0 0
M  V30 9 C -3.8971 0.0 0.0 0
M  V30 10 C -1.299 -4.4999 0.0 0
M  V30 11 C -3.8971 1.5 0.0 0
M  V30 12 C -5.1961 -0.7499 0.0 0
M  V30 13 C -5.1961 2.25 0.0 0
M  V30 14 C -6.4951 0.0 0.0 0
M  V30 15 C -6.4951 1.5 0.0 0
M  V30 END ATOM
M  V30 BEGIN BOND
M  V30 1 2 1 2
M  V30 2 1 2 3
M  V30 3 1 2 4
M  V30 4 1 3 5
M  V30 5 1 3 6
M  V30 6 2 4 7
M  V30 7 2 6 8
M  V30 8 1 6 9
M  V30 9 1 7 10
M  V30 10 1 9 11
M  V30 11 1 9 12
M  V30 12 1 11 13
M  V30 13 1 12 14
M  V30 14 1 13 15
M  V30 15 1 7 8
M  V30 16 1 14 15
M  V30 END BOND
M  V30 END CTAB
M  END
>  <Column 1>
9

>  <Column 2>
PandemicResponseBox - Plate A

>  <Column 3>
A03

>  <Column 4>
MMV002731

>  <Column 5>
10 mM

>  <Column 6>
ANTIFUNGALS

>  <Column 7>


>  <Column 8>
None

>  <Column 9>
Ciclopirox

>  <Column 10>
O=[C]1[N](O)C(=CC(=C1)C)C2CCCCC2

>  <Column 11>
CHEMBL1413

>  <Column 12>
Lett Appl Microbiol. 2010 Nov;51(5):485-9

>  <Column 13>
207.3

>  <Column 14>
C12H17NO2

>  <Tox-Glu>
ATCTOX

>  <Column 15>


>  <Column 16>
45 

>  <Column 17>
30 

>  <Column 18>
30 

>  <Column 19>


>  <Tox-Gal>
CTOXGAL

>  <Column 20>


>  <Column 21>
87 

>  <Column 22>
87 

>  <Column 23>
99 

>  <Column 24>


>  <Column 25>


>  <PAMPA>
PAMPA

>  <Column 26>
undetected

>  <Column 27>
low sensitivity

>  <Column 28>


>  <Mouse>
ATMETMOU

>  <Column 29>


>  <Column 30>
Not determined; Low sensitivity

$$$$
Compound 11
Actelion Java MolfileCreator 2.0

  0  0  0  0  0  0              0 V3000
M  V30 BEGIN CTAB
M  V30 COUNTS 27 29 0 0 0
M  V30 BEGIN ATOM
M  V30 1 O 10.4635 -2.3898 0.0 0
M  V30 2 C 9.0932 -3.0 0.0 0
M  V30 3 C 11.4672 -3.5046 0.0 0
M  V30 4 C 7.7942 -2.2499 0.0 0
M  V30 5 C 9.25 -4.4917 0.0 0
M  V30 6 C 12.959 -3.3478 0.0 0
M  V30 7 C 10.7172 -4.8036 0.0 0
M  V30 8 C 7.7942 -0.75 0.0 0
M  V30 9 C 6.4951 -2.9999 0.0 0
M  V30 10 C 13.8407 -4.5613 0.0 0
M  V30 11 C 13.5691 -1.9775 0.0 0
M  V30 12 C 6.4951 0.0 0.0 0
M  V30 13 C 5.1961 -2.25 0.0 0
M  V30 14 C 15.3325 -4.4045 0.0 0
M  V30 15 C 15.0609 -1.8207 0.0 0
M  V30 16 C 5.1961 -0.75 0.0 0
M  V30 17 C 15.9426 -3.0342 0.0 0
M  V30 18 C 3.8971 0.0 0.0 0
M  V30 19 C 17.4344 -2.8774 0.0 0
M  V30 20 N 3.8971 1.5 0.0 0
M  V30 21 N 2.598 -0.75 0.0 0
M  V30 22 N 18.316 -4.0909 0.0 0
M  V30 23 N 18.0445 -1.5071 0.0 0
M  V30 24 O 1.299 0.0 0.0 0
M  V30 25 O 19.5363 -1.3503 0.0 0
M  V30 26 C 0.0 -0.75 0.0 0
M  V30 27 C 20.1464 0.0199 0.0 0
M  V30 END ATOM
M  V30 BEGIN BOND
M  V30 1 1 1 2
M  V30 2 1 1 3
M  V30 3 1 2 4
M  V30 4 2 2 5
M  V30 5 1 3 6
M  V30 6 2 3 7
M  V30 7 2 4 8
M  V30 8 1 4 9
M  V30 9 2 6 10
M  V30 10 1 6 11
M  V30 11 1 8 12
M  V30 12 2 9 13
M  V30 13 1 10 14
M  V30 14 2 11 15
M  V30 15 2 12 16
M  V30 16 2 14 17
M  V30 17 1 16 18
M  V30 18 1 17 19
M  V30 19 2 18 20
M  V30 20 1 18 21
M  V30 21 2 19 22
M  V30 22 1 19 23
M  V30 23 1 21 24
M  V30 24 1 23 25
M  V30 25 1 24 26
M  V30 26 1 25 27
M  V30 27 1 5 7
M  V30 28 1 13 16
M  V30 29 1 15 17
M  V30 END BOND
M  V30 END CTAB
M  END
>  <Column 1>
10

>  <Column 2>
PandemicResponseBox - Plate A

>  <Column 3>
B03

>  <Column 4>
MMV000059

>  <Column 5>
10 mM

>  <Column 6>
ANTIFUNGALS

>  <Column 7>


>  <Column 8>
None

>  <Column 9>
Pafuramidine

>  <Column 10>
O1C(=CC=C1C2=CC=C(C(=N)NOC)C=C2)C3=CC=C(C(=N)NOC)C=C3

>  <Column 11>
CHEMBL319669

>  <Column 12>


>  <Column 13>
364.4

>  <Column 14>
C20 H20 N4 O3

>  <Tox-Glu>
ATCTOX

>  <Column 15>


>  <Column 16>
106 

>  <Column 17>
97 

>  <Column 18>
95 

>  <Column 19>


>  <Tox-Gal>
CTOXGAL

>  <Column 20>


>  <Column 21>
96 

>  <Column 22>
95 

>  <Column 23>
98 

>  <Column 24>


>  <Column 25>


>  <PAMPA>
PAMPA

>  <Column 26>
238

>  <Column 27>


>  <Column 28>


>  <Mouse>
ATMETMOU

>  <Column 29>
18

>  <Column 30>
Large variations

$$$$
Compound 12
Actelion Java MolfileCreator 2.0

  0  0  0  0  0  0              0 V3000
M  V30 BEGIN CTAB
M  V30 COUNTS 24 26 0 0 0
M  V30 BEGIN ATOM
M  V30 1 N 1.732 -0.5 0.0 0
M  V30 2 C 2.598 0.0 0.0 0
M  V30 3 C 0.866 0.0 0.0 0
M  V30 4 C 1.732 -1.5 0.0 0
M  V30 5 C 3.4641 -0.5 0.0 0
M  V30 6 C 0.0 -0.5 0.0 0
M  V30 7 C 3.4641 -1.5 0.0 0
M  V30 8 C 4.3301 0.0 0.0 0
M  V30 9 C -0.866 0.0 0.0 0
M  V30 10 C 0.0 -1.4999 0.0 0
M  V30 11 C 4.3301 -2.0 0.0 0
M  V30 12 C 2.598 -1.9999 0.0 0
M  V30 13 C 5.1961 -0.5 0.0 0
M  V30 14 C -1.732 -0.4999 0.0 0
M  V30 15 C -0.866 -1.9999 0.0 0
M  V30 16 C 5.1961 -1.5 0.0 0
M  V30 17 C 4.3301 -3.0 0.0 0
M  V30 18 C 2.598 -2.9999 0.0 0
M  V30 19 C -1.732 -1.4999 0.0 0
M  V30 20 C 3.4641 -3.4999 0.0 0
M  V30 21 C -2.598 -1.9999 0.0 0
M  V30 22 C -2.098 -2.866 0.0 0
M  V30 23 C -3.4641 -2.4999 0.0 0
M  V30 24 C -3.098 -1.1339 0.0 0
M  V30 END ATOM
M  V30 BEGIN BOND
M  V30 1 1 1 2
M  V30 2 1 1 3
M  V30 3 1 1 4
M  V30 4 1 2 5
M  V30 5 1 3 6
M  V30 6 1 5 7
M  V30 7 2 5 8
M  V30 8 2 6 9
M  V30 9 1 6 10
M  V30 10 1 7 11
M  V30 11 2 7 12
M  V30 12 1 8 13
M  V30 13 1 9 14
M  V30 14 2 10 15
M  V30 15 1 11 16
M  V30 16 2 11 17
M  V30 17 1 12 18
M  V30 18 2 14 19
M  V30 19 1 17 20
M  V30 20 1 19 21
M  V30 21 1 21 22
M  V30 22 1 21 23
M  V30 23 1 21 24
M  V30 24 2 13 16
M  V30 25 1 15 19
M  V30 26 2 18 20
M  V30 END BOND
M  V30 END CTAB
M  END
>  <Column 1>
11

>  <Column 2>
PandemicResponseBox - Plate A

>  <Column 3>
C03

>  <Column 4>
MMV637104

>  <Column 5>
10 mM

>  <Column 6>
ANTIFUNGALS

>  <Column 7>
1

>  <Column 8>
Hydrochloric acid

>  <Column 9>
Butenafine

>  <Column 10>
N(CC1=CC=CC2=CC=CC=C12)(CC3=CC=C(C(C)(C)C)C=C3)C

>  <Column 11>
CHEMBL990

>  <Column 12>


>  <Column 13>
354

>  <Column 14>
C23H27N

>  <Tox-Glu>
ATCTOX

>  <Column 15>


>  <Column 16>
92 

>  <Column 17>
64 

>  <Column 18>
27 

>  <Column 19>


>  <Tox-Gal>
CTOXGAL

>  <Column 20>


>  <Column 21>
86 

>  <Column 22>
34 

>  <Column 23>
3 

>  <Column 24>


>  <Column 25>


>  <PAMPA>
PAMPA

>  <Column 26>
359

>  <Column 27>


>  <Column 28>


>  <Mouse>
ATMETMOU

>  <Column 29>
333

>  <Column 30>


$$$$
Compound 13
Actelion Java MolfileCreator 2.0

  0  0  0  0  0  0              0 V3000
M  V30 BEGIN CTAB
M  V30 COUNTS 36 40 0 0 0
M  V30 BEGIN ATOM
M  V30 1 Cl 1.7053 0.8895 0.0 0
M  V30 2 C 2.0637 1.8231 0.0 0
M  V30 3 C 3.0514 1.9795 0.0 0
M  V30 4 C 1.4344 2.6002 0.0 0
M  V30 5 C 3.4097 2.9131 0.0 0
M  V30 6 C 3.6807 1.2024 0.0 0
M  V30 7 C 1.7927 3.5338 0.0 0
M  V30 8 C 2.7804 3.6903 0.0 0
M  V30 9 O 2.7026 0.9945 0.0 0
M  V30 10 O 4.1807 0.3364 0.0 0
M  V30 11 C 4.0874 2.1159 0.0 0
M  V30 12 Cl 1.1634 4.311 0.0 0
M  V30 13 C 2.598 0.0 0.0 0
M  V30 14 C 3.5116 -0.4067 0.0 0
M  V30 15 N 5.082 2.2205 0.0 0
M  V30 16 C 1.732 -0.5 0.0 0
M  V30 17 C 5.7511 1.4773 0.0 0
M  V30 18 C 5.582 3.0865 0.0 0
M  V30 19 O 0.866 0.0 0.0 0
M  V30 20 N 6.6646 1.884 0.0 0
M  V30 21 C 6.5601 2.8786 0.0 0
M  V30 22 C 0.0 -0.5 0.0 0
M  V30 23 C -0.866 0.0 0.0 0
M  V30 24 C 0.0 -1.4999 0.0 0
M  V30 25 C -1.732 -0.4999 0.0 0
M  V30 26 C -0.866 -1.9999 0.0 0
M  V30 27 C -1.732 -1.4999 0.0 0
M  V30 28 N -2.598 -1.9999 0.0 0
M  V30 29 C -3.4641 -1.4999 0.0 0
M  V30 30 C -2.598 -2.9999 0.0 0
M  V30 31 C -4.3301 -1.9999 0.0 0
M  V30 32 C -3.4641 -3.4999 0.0 0
M  V30 33 N -4.3301 -2.9999 0.0 0
M  V30 34 C -5.1961 -3.4999 0.0 0
M  V30 35 O -6.0621 -2.9999 0.0 0
M  V30 36 C -5.1961 -4.4999 0.0 0
M  V30 END ATOM
M  V30 BEGIN BOND
M  V30 1 1 1 2
M  V30 2 2 2 3
M  V30 3 1 2 4
M  V30 4 1 3 5
M  V30 5 1 3 6
M  V30 6 2 4 7
M  V30 7 2 5 8
M  V30 8 1 6 9
M  V30 9 1 6 10
M  V30 10 1 6 11
M  V30 11 1 7 12
M  V30 12 1 9 13
M  V30 13 1 10 14
M  V30 14 1 11 15
M  V30 15 1 13 16
M  V30 16 1 15 17
M  V30 17 1 15 18
M  V30 18 1 16 19
M  V30 19 2 17 20
M  V30 20 2 18 21
M  V30 21 1 19 22
M  V30 22 2 22 23
M  V30 23 1 22 24
M  V30 24 1 23 25
M  V30 25 2 24 26
M  V30 26 2 25 27
M  V30 27 1 27 28
M  V30 28 1 28 29
M  V30 29 1 28 30
M  V30 30 1 29 31
M  V30 31 1 30 32
M  V30 32 1 31 33
M  V30 33 1 33 34
M  V30 34 2 34 35
M  V30 35 1 34 36
M  V30 36 1 7 8
M  V30 37 1 13 14
M  V30 38 1 20 21
M  V30 39 1 26 27
M  V30 40 1 32 33
M  V30 END BOND
M  V30 END CTAB
M  END
>  <Column 1>
12

>  <Column 2>
PandemicResponseBox - Plate A

>  <Column 3>
D03

>  <Column 4>
MMV637533

>  <Column 5>
10 mM

>  <Column 6>
ANTIFUNGALS

>  <Column 7>


>  <Column 8>
None

>  <Column 9>
Ketoconazole

>  <Column 10>
ClC1=C(C=CC(=C1)Cl)C4(OC(COC3=CC=C(N2CCN(C(=O)C)CC2)C=C3)CO4)C[N]5C=NC=C5

>  <Column 11>
CHEMBL295698

>  <Column 12>


>  <Column 13>
531.4

>  <Column 14>
C26H28Cl2N4O4

>  <Tox-Glu>
ATCTOX

>  <Column 15>


>  <Column 16>
89 

>  <Column 17>
52 

>  <Column 18>
1 

>  <Column 19>


>  <Tox-Gal>
CTOXGAL

>  <Column 20>


>  <Column 21>
83 

>  <Column 22>
1 

>  <Column 23>
1 

>  <Column 24>


>  <Column 25>


>  <PAMPA>
PAMPA

>  <Column 26>
undetected

>  <Column 27>
low sensitivity

>  <Column 28>


>  <Mouse>
ATMETMOU

>  <Column 29>


>  <Column 30>
Not determined; Low sensitivity

$$$$
Compound 14
Actelion Java MolfileCreator 2.0

  0  0  0  0  0  0              0 V3000
M  V30 BEGIN CTAB
M  V30 COUNTS 31 34 0 0 0
M  V30 BEGIN ATOM
M  V30 1 S 5.1425 2.3965 0.0 0
M  V30 2 C 3.9214 1.5093 0.0 0
M  V30 3 C 4.6761 3.832 0.0 0
M  V30 4 N 2.7003 2.3965 0.0 0
M  V30 5 C 3.9214 0.0 0.0 0 CFG=1
M  V30 6 C 3.1667 3.832 0.0 0
M  V30 7 C 2.6143 -0.7546 0.0 0 CFG=1
M  V30 8 C 5.2286 -0.3773 0.0 0
M  V30 9 C 2.2795 5.0531 0.0 0
M  V30 10 O 2.6143 -2.264 0.0 0
M  V30 11 C 3.9214 -1.5093 0.0 0
M  V30 12 C 1.3071 0.0 0.0 0
M  V30 13 C 0.7784 4.8953 0.0 0
M  V30 14 C 2.8935 6.432 0.0 0
M  V30 15 C 3.9214 -3.0187 0.0 0
M  V30 16 C 5.2286 -0.9433 0.0 0
M  V30 17 N 0.0 -0.7546 0.0 0
M  V30 18 C -0.1086 6.1165 0.0 0
M  V30 19 C 2.0063 7.6531 0.0 0
M  V30 20 F 2.6143 -3.7734 0.0 0
M  V30 21 C 5.2286 -3.7734 0.0 0
M  V30 22 C 6.5357 -1.5093 0.0 0
M  V30 23 N -1.3788 -0.1407 0.0 0
M  V30 24 C -0.1577 -2.2557 0.0 0
M  V30 25 C 0.5052 7.4953 0.0 0
M  V30 26 C 6.5357 -3.0187 0.0 0
M  V30 27 C -2.3888 -1.2624 0.0 0
M  V30 28 N -1.6341 -2.5696 0.0 0
M  V30 29 C -0.3819 8.7164 0.0 0
M  V30 30 F 7.8429 -3.7734 0.0 0
M  V30 31 N -1.2691 9.9376 0.0 0
M  V30 END ATOM
M  V30 BEGIN BOND
M  V30 1 1 1 2
M  V30 2 1 1 3
M  V30 3 2 2 4
M  V30 4 1 5 2
M  V30 5 2 3 6
M  V30 6 1 7 5
M  V30 7 1 5 8 CFG=3
M  V30 8 1 6 9
M  V30 9 1 7 10
M  V30 10 1 7 11 CFG=1
M  V30 11 1 7 12
M  V30 12 2 9 13
M  V30 13 1 9 14
M  V30 14 2 11 15
M  V30 15 1 11 16
M  V30 16 1 12 17
M  V30 17 1 13 18
M  V30 18 2 14 19
M  V30 19 1 15 20
M  V30 20 1 15 21
M  V30 21 2 16 22
M  V30 22 1 17 23
M  V30 23 1 17 24
M  V30 24 2 18 25
M  V30 25 2 21 26
M  V30 26 2 23 27
M  V30 27 2 24 28
M  V30 28 1 25 29
M  V30 29 1 26 30
M  V30 30 3 29 31
M  V30 31 1 4 6
M  V30 32 1 19 25
M  V30 33 1 22 26
M  V30 34 1 27 28
M  V30 END BOND
M  V30 BEGIN COLLECTION
M  V30 MDLV30/STEABS ATOMS=(2 5 7)
M  V30 END COLLECTION
M  V30 END CTAB
M  END
>  <Column 1>
13

>  <Column 2>
PandemicResponseBox - Plate A

>  <Column 3>
E03

>  <Column 4>
MMV1634362

>  <Column 5>
10 mM

>  <Column 6>
ANTIFUNGALS

>  <Column 7>


>  <Column 8>
None

>  <Column 9>
Ravuconazole

>  <Column 10>
S1C(=NC(=C1)C2=CC=C(C#N)C=C2)[C@@H]([C@@](O)(C3=C(F)C=C(F)C=C3)C[N]4N=CN=C4)C

>  <Column 11>
CHEMBL294029

>  <Column 12>


>  <Column 13>
437.5

>  <Column 14>
C22 H17 F2 N5 O S

>  <Tox-Glu>
ATCTOX

>  <Column 15>


>  <Column 16>
92 

>  <Column 17>
63 

>  <Column 18>
14 

>  <Column 19>


>  <Tox-Gal>
CTOXGAL

>  <Column 20>


>  <Column 21>
39 

>  <Column 22>
0 

>  <Column 23>
1 

>  <Column 24>


>  <Column 25>


>  <PAMPA>
PAMPA

>  <Column 26>
323

>  <Column 27>


>  <Column 28>


>  <Mouse>
ATMETMOU

>  <Column 29>
-16

>  <Column 30>


$$$$
Compound 15
Actelion Java MolfileCreator 2.0

  0  0  0  0  0  0              0 V3000
M  V30 BEGIN CTAB
M  V30 COUNTS 19 22 0 0 0
M  V30 BEGIN ATOM
M  V30 1 O 3.8971 1.5 0.0 0
M  V30 2 C 3.8971 0.0 0.0 0
M  V30 3 N 2.598 -0.75 0.0 0
M  V30 4 C 5.1961 -0.7499 0.0 0
M  V30 5 C 2.598 -2.25 0.0 0
M  V30 6 C 1.299 0.0 0.0 0
M  V30 7 C 5.1961 -2.2499 0.0 0
M  V30 8 C 6.4951 0.0 0.0 0
M  V30 9 O 1.299 -3.0 0.0 0
M  V30 10 C 3.8971 -2.9999 0.0 0
M  V30 11 C 0.0 -0.75 0.0 0 CFG=2
M  V30 12 C 6.4951 -2.9999 0.0 0
M  V30 13 C 7.7942 -0.7499 0.0 0
M  V30 14 C 3.8971 -4.4999 0.0 0
M  V30 15 O -1.5 -0.7499 0.0 0
M  V30 16 C -0.75 -2.049 0.0 0
M  V30 17 C 7.7942 -2.2499 0.0 0
M  V30 18 C 6.4951 -4.4999 0.0 0
M  V30 19 C 5.1961 -5.2499 0.0 0
M  V30 END ATOM
M  V30 BEGIN BOND
M  V30 1 2 1 2
M  V30 2 1 2 3
M  V30 3 1 2 4
M  V30 4 1 3 5
M  V30 5 1 3 6
M  V30 6 1 4 7
M  V30 7 2 4 8
M  V30 8 2 5 9
M  V30 9 1 5 10
M  V30 10 1 11 6 CFG=1
M  V30 11 1 7 12
M  V30 12 1 8 13
M  V30 13 1 10 14
M  V30 14 1 11 15
M  V30 15 1 11 16
M  V30 16 1 12 17
M  V30 17 2 12 18
M  V30 18 2 14 19
M  V30 19 2 7 10
M  V30 20 2 13 17
M  V30 21 1 15 16
M  V30 22 1 18 19
M  V30 END BOND
M  V30 BEGIN COLLECTION
M  V30 MDLV30/STERAC1 ATOMS=(1 11)
M  V30 END COLLECTION
M  V30 END CTAB
M  END
>  <Column 1>
14

>  <Column 2>
PandemicResponseBox - Plate A

>  <Column 3>
F03

>  <Column 4>
MMV1634360

>  <Column 5>
10 mM

>  <Column 6>
ANTIFUNGALS

>  <Column 7>


>  <Column 8>
None

>  <Column 9>
N-epoxymethyl-1,8-naphthalimide

>  <Column 10>
O=C1N(C(=O)C3=C2C1=CC=CC2=CC=C3)CC4OC4

>  <Column 11>
NA

>  <Column 12>
WO2006104461

>  <Column 13>
253.3

>  <Column 14>
C15 H11 N O3

>  <Tox-Glu>
ATCTOX

>  <Column 15>


>  <Column 16>
95 

>  <Column 17>
19 

>  <Column 18>
7 

>  <Column 19>


>  <Tox-Gal>
CTOXGAL

>  <Column 20>


>  <Column 21>
106 

>  <Column 22>
33 

>  <Column 23>
22 

>  <Column 24>


>  <Column 25>


>  <PAMPA>
PAMPA

>  <Column 26>
290

>  <Column 27>


>  <Column 28>


>  <Mouse>
ATMETMOU

>  <Column 29>
17

>  <Column 30>


$$$$
Compound 16
Actelion Java MolfileCreator 2.0

  0  0  0  0  0  0              0 V3000
M  V30 BEGIN CTAB
M  V30 COUNTS 22 24 0 0 0
M  V30 BEGIN ATOM
M  V30 1 S 7.5467 -1.7024 0.0 0 CFG=2
M  V30 2 O 8.0467 -0.8364 0.0 0
M  V30 3 C 6.5467 -1.7024 0.0 0
M  V30 4 C 8.0467 -2.5684 0.0 0
M  V30 5 C 6.0467 -0.8364 0.0 0
M  V30 6 C 6.0467 -2.5684 0.0 0
M  V30 7 C 7.5467 -3.4344 0.0 0
M  V30 8 C 9.0467 -2.5684 0.0 0
M  V30 9 C 5.0467 -0.8364 0.0 0
M  V30 10 C 5.0467 -2.5684 0.0 0
M  V30 11 C 8.0467 -4.3005 0.0 0
M  V30 12 C 9.5467 -3.4344 0.0 0
M  V30 13 N 4.3776 -0.0932 0.0 0
M  V30 14 C 4.5467 -1.7024 0.0 0
M  V30 15 C 9.0467 -4.3005 0.0 0
M  V30 16 C 3.4641 -0.5 0.0 0
M  V30 17 N 3.5686 -1.4945 0.0 0
M  V30 18 N 2.598 0.0 0.0 0
M  V30 19 C 1.732 -0.5 0.0 0
M  V30 20 O 1.732 -1.5 0.0 0
M  V30 21 O 0.866 0.0 0.0 0
M  V30 22 C 0.0 -0.5 0.0 0
M  V30 END ATOM
M  V30 BEGIN BOND
M  V30 1 2 1 2
M  V30 2 1 1 3 CFG=1
M  V30 3 1 1 4
M  V30 4 2 3 5
M  V30 5 1 3 6
M  V30 6 2 4 7
M  V30 7 1 4 8
M  V30 8 1 5 9
M  V30 9 2 6 10
M  V30 10 1 7 11
M  V30 11 2 8 12
M  V30 12 1 9 13
M  V30 13 2 9 14
M  V30 14 2 11 15
M  V30 15 2 13 16
M  V30 16 1 14 17
M  V30 17 1 16 18
M  V30 18 1 18 19
M  V30 19 2 19 20
M  V30 20 1 19 21
M  V30 21 1 21 22
M  V30 22 1 10 14
M  V30 23 1 12 15
M  V30 24 1 16 17
M  V30 END BOND
M  V30 BEGIN COLLECTION
M  V30 MDLV30/STERAC1 ATOMS=(1 1)
M  V30 END COLLECTION
M  V30 END CTAB
M  END
>  <Column 1>
15

>  <Column 2>
PandemicResponseBox - Plate A

>  <Column 3>
G03

>  <Column 4>
MMV002565

>  <Column 5>
10 mM

>  <Column 6>
ANTIFUNGALS

>  <Column 7>


>  <Column 8>
None

>  <Column 9>
Oxfendazole

>  <Column 10>
[S](=O)(C2=CC1=C([NH]C(=N1)NC(=O)OC)C=C2)C3=CC=CC=C3

>  <Column 11>
CHEMBL42442

>  <Column 12>


>  <Column 13>
315.4

>  <Column 14>
C15H13N3O3S

>  <Tox-Glu>
ATCTOX

>  <Column 15>


>  <Column 16>
95 

>  <Column 17>
97 

>  <Column 18>
100 

>  <Column 19>


>  <Tox-Gal>
CTOXGAL

>  <Column 20>


>  <Column 21>
95 

>  <Column 22>
92 

>  <Column 23>
103 

>  <Column 24>


>  <Column 25>


>  <PAMPA>
PAMPA

>  <Column 26>
77

>  <Column 27>


>  <Column 28>


>  <Mouse>
ATMETMOU

>  <Column 29>


>  <Column 30>
Not determined; Large blank peak

$$$$
Compound 17
Actelion Java MolfileCreator 2.0

  0  0  0  0  0  0              0 V3000
M  V30 BEGIN CTAB
M  V30 COUNTS 36 35 0 0 0
M  V30 BEGIN ATOM
M  V30 1 N 17.3205 -1.4999 0.0 0
M  V30 2 C 17.3205 -0.5 0.0 0
M  V30 3 N 16.4544 0.0 0.0 0
M  V30 4 N 18.1865 0.0 0.0 0
M  V30 5 C 15.5884 -0.5 0.0 0
M  V30 6 C 19.0525 -0.5 0.0 0
M  V30 7 N 15.5884 -1.5 0.0 0
M  V30 8 N 14.7224 0.0 0.0 0
M  V30 9 C 19.9185 0.0 0.0 0
M  V30 10 C 13.8564 -0.5 0.0 0
M  V30 11 C 20.7846 -0.5 0.0 0
M  V30 12 C 19.9185 1.0 0.0 0
M  V30 13 C 12.9903 0.0 0.0 0
M  V30 14 C 21.6506 0.0 0.0 0
M  V30 15 C 19.0525 1.5 0.0 0
M  V30 16 C 12.1243 -0.5 0.0 0
M  V30 17 C 22.5166 -0.5 0.0 0
M  V30 18 C 11.2583 0.0 0.0 0
M  V30 19 C 23.3826 0.0 0.0 0
M  V30 20 C 10.3923 -0.5 0.0 0
M  V30 21 C 9.5262 0.0 0.0 0
M  V30 22 N 8.6602 -0.5 0.0 0
M  V30 23 C 7.7942 0.0 0.0 0
M  V30 24 N 7.7942 0.9999 0.0 0
M  V30 25 N 6.9282 -0.5 0.0 0
M  V30 26 C 6.0621 0.0 0.0 0
M  V30 27 N 6.0621 0.9999 0.0 0
M  V30 28 N 5.1961 -0.5 0.0 0
M  V30 29 C 4.3301 0.0 0.0 0
M  V30 30 C 3.4641 -0.5 0.0 0
M  V30 31 C 2.598 0.0 0.0 0
M  V30 32 C 3.4641 -1.5 0.0 0
M  V30 33 C 1.732 -0.5 0.0 0
M  V30 34 C 4.3301 -2.0 0.0 0
M  V30 35 C 0.866 0.0 0.0 0
M  V30 36 C 0.0 -0.5 0.0 0
M  V30 END ATOM
M  V30 BEGIN BOND
M  V30 1 2 1 2
M  V30 2 1 2 3
M  V30 3 1 2 4
M  V30 4 1 3 5
M  V30 5 1 4 6
M  V30 6 2 5 7
M  V30 7 1 5 8
M  V30 8 1 6 9
M  V30 9 1 8 10
M  V30 10 1 9 11
M  V30 11 1 9 12
M  V30 12 1 10 13
M  V30 13 1 11 14
M  V30 14 1 12 15
M  V30 15 1 13 16
M  V30 16 1 14 17
M  V30 17 1 16 18
M  V30 18 1 17 19
M  V30 19 1 18 20
M  V30 20 1 20 21
M  V30 21 1 21 22
M  V30 22 1 22 23
M  V30 23 2 23 24
M  V30 24 1 23 25
M  V30 25 1 25 26
M  V30 26 2 26 27
M  V30 27 1 26 28
M  V30 28 1 28 29
M  V30 29 1 29 30
M  V30 30 1 30 31
M  V30 31 1 30 32
M  V30 32 1 31 33
M  V30 33 1 32 34
M  V30 34 1 33 35
M  V30 35 1 35 36
M  V30 END BOND
M  V30 END CTAB
M  END
>  <Column 1>
16

>  <Column 2>
PandemicResponseBox - Plate A

>  <Column 3>
H03

>  <Column 4>
MMV396785

>  <Column 5>
10 mM

>  <Column 6>
ANTIFUNGALS

>  <Column 7>
2

>  <Column 8>
Hydrochloric acid

>  <Column 9>
Alexidine

>  <Column 10>
N=C(NC(=N)NCCCCCCNC(=N)NC(=N)NCC(CCCC)CC)NCC(CCCC)CC

>  <Column 11>
CHEMBL1195210

>  <Column 12>


>  <Column 13>
581.7

>  <Column 14>
C26H56N10

>  <Tox-Glu>
ATCTOX

>  <Column 15>


>  <Column 16>
0 

>  <Column 17>
0 

>  <Column 18>
1 

>  <Column 19>


>  <Tox-Gal>
CTOXGAL

>  <Column 20>


>  <Column 21>
0 

>  <Column 22>
0 

>  <Column 23>
1 

>  <Column 24>


>  <Column 25>


>  <PAMPA>
PAMPA

>  <Column 26>
<4

>  <Column 27>


>  <Column 28>


>  <Mouse>
ATMETMOU

>  <Column 29>


>  <Column 30>
Not determined; Broad Peak

$$$$
Compound 18
Actelion Java MolfileCreator 2.0

  0  0  0  0  0  0              0 V3000
M  V30 BEGIN CTAB
M  V30 COUNTS 21 23 0 0 0
M  V30 BEGIN ATOM
M  V30 1 S 7.5467 -1.7024 0.0 0
M  V30 2 C 6.5467 -1.7024 0.0 0
M  V30 3 C 8.0467 -0.8364 0.0 0
M  V30 4 C 6.0467 -0.8364 0.0 0
M  V30 5 C 6.0467 -2.5684 0.0 0
M  V30 6 C 9.0467 -0.8364 0.0 0
M  V30 7 C 7.5467 0.0296 0.0 0
M  V30 8 C 5.0467 -0.8364 0.0 0
M  V30 9 C 5.0467 -2.5684 0.0 0
M  V30 10 C 9.5467 0.0296 0.0 0
M  V30 11 C 8.0467 0.8956 0.0 0
M  V30 12 N 4.3776 -0.0932 0.0 0
M  V30 13 C 4.5467 -1.7024 0.0 0
M  V30 14 C 9.0467 0.8956 0.0 0
M  V30 15 C 3.4641 -0.5 0.0 0
M  V30 16 N 3.5686 -1.4945 0.0 0
M  V30 17 N 2.598 0.0 0.0 0
M  V30 18 C 1.732 -0.5 0.0 0
M  V30 19 O 1.732 -1.5 0.0 0
M  V30 20 O 0.866 0.0 0.0 0
M  V30 21 C 0.0 -0.5 0.0 0
M  V30 END ATOM
M  V30 BEGIN BOND
M  V30 1 1 1 2
M  V30 2 1 1 3
M  V30 3 2 2 4
M  V30 4 1 2 5
M  V30 5 2 3 6
M  V30 6 1 3 7
M  V30 7 1 4 8
M  V30 8 2 5 9
M  V30 9 1 6 10
M  V30 10 2 7 11
M  V30 11 1 8 12
M  V30 12 2 8 13
M  V30 13 2 10 14
M  V30 14 2 12 15
M  V30 15 1 13 16
M  V30 16 1 15 17
M  V30 17 1 17 18
M  V30 18 2 18 19
M  V30 19 1 18 20
M  V30 20 1 20 21
M  V30 21 1 9 13
M  V30 22 1 11 14
M  V30 23 1 15 16
M  V30 END BOND
M  V30 END CTAB
M  END
>  <Column 1>
17

>  <Column 2>
PandemicResponseBox - Plate A

>  <Column 3>
A04

>  <Column 4>
MMV003143

>  <Column 5>
10 mM

>  <Column 6>
ANTIFUNGALS

>  <Column 7>


>  <Column 8>
None

>  <Column 9>
Fenbendazole

>  <Column 10>
S(C2=CC1=C([NH]C(=N1)NC(=O)OC)C=C2)C3=CC=CC=C3

>  <Column 11>
CHEMBL37161

>  <Column 12>


>  <Column 13>
299.4

>  <Column 14>
C15H13N3O2S

>  <Tox-Glu>
ATCTOX

>  <Column 15>


>  <Column 16>
91 

>  <Column 17>
64 

>  <Column 18>
36 

>  <Column 19>


>  <Tox-Gal>
CTOXGAL

>  <Column 20>


>  <Column 21>
94 

>  <Column 22>
75 

>  <Column 23>
64 

>  <Column 24>


>  <Column 25>


>  <PAMPA>
PAMPA

>  <Column 26>
171

>  <Column 27>


>  <Column 28>


>  <Mouse>
ATMETMOU

>  <Column 29>
59

>  <Column 30>


$$$$
Compound 19
Actelion Java MolfileCreator 2.0

  0  0  0  0  0  0              0 V3000
M  V30 BEGIN CTAB
M  V30 COUNTS 22 24 0 0 0
M  V30 BEGIN ATOM
M  V30 1 F 0.0 -1.4999 0.0 0
M  V30 2 C 0.866 -1.9999 0.0 0
M  V30 3 C 1.732 -1.5 0.0 0
M  V30 4 C 0.866 -2.9999 0.0 0
M  V30 5 C 2.598 -2.0 0.0 0
M  V30 6 C 1.732 -0.5 0.0 0
M  V30 7 C 1.732 -3.5 0.0 0
M  V30 8 C 2.598 -3.0 0.0 0
M  V30 9 O 2.598 -0.9999 0.0 0
M  V30 10 C 2.598 0.0 0.0 0
M  V30 11 C 0.866 0.0 0.0 0
M  V30 12 F 1.732 -4.5 0.0 0
M  V30 13 N 3.4641 -0.5 0.0 0
M  V30 14 N 0.866 0.9999 0.0 0
M  V30 15 N 3.5686 -1.4945 0.0 0
M  V30 16 C 4.3776 -0.0932 0.0 0
M  V30 17 N 0.057 1.5877 0.0 0
M  V30 18 C 1.675 1.5877 0.0 0
M  V30 19 C 4.5467 -1.7024 0.0 0
M  V30 20 N 5.0467 -0.8364 0.0 0
M  V30 21 C 0.366 2.5388 0.0 0
M  V30 22 N 1.366 2.5388 0.0 0
M  V30 END ATOM
M  V30 BEGIN BOND
M  V30 1 1 1 2
M  V30 2 2 2 3
M  V30 3 1 2 4
M  V30 4 1 3 5
M  V30 5 1 3 6
M  V30 6 2 4 7
M  V30 7 2 5 8
M  V30 8 1 6 9
M  V30 9 1 6 10
M  V30 10 1 6 11
M  V30 11 1 7 12
M  V30 12 1 10 13
M  V30 13 1 11 14
M  V30 14 1 13 15
M  V30 15 1 13 16
M  V30 16 1 14 17
M  V30 17 1 14 18
M  V30 18 2 15 19
M  V30 19 2 16 20
M  V30 20 2 17 21
M  V30 21 2 18 22
M  V30 22 1 7 8
M  V30 23 1 19 20
M  V30 24 1 21 22
M  V30 END BOND
M  V30 END CTAB
M  END
>  <Column 1>
18

>  <Column 2>
PandemicResponseBox - Plate A

>  <Column 3>
B04

>  <Column 4>
MMV002337

>  <Column 5>
10 mM

>  <Column 6>
ANTIFUNGALS

>  <Column 7>


>  <Column 8>
None

>  <Column 9>
Fluconazole

>  <Column 10>
FC1=C(C=CC(=C1)F)C(O)(C[N]2N=CN=C2)C[N]3N=CN=C3

>  <Column 11>
CHEMBL106

>  <Column 12>


>  <Column 13>
306.3

>  <Column 14>
C13H12F2N6O

>  <Tox-Glu>
ATCTOX

>  <Column 15>


>  <Column 16>
101 

>  <Column 17>
102 

>  <Column 18>
100 

>  <Column 19>


>  <Tox-Gal>
CTOXGAL

>  <Column 20>


>  <Column 21>
97 

>  <Column 22>
95 

>  <Column 23>
104 

>  <Column 24>


>  <Column 25>


>  <PAMPA>
PAMPA

>  <Column 26>
39

>  <Column 27>


>  <Column 28>


>  <Mouse>
ATMETMOU

>  <Column 29>
-5

>  <Column 30>


$$$$
Compound 20
Actelion Java MolfileCreator 2.0

  0  0  0  0  0  0              0 V3000
M  V30 BEGIN CTAB
M  V30 COUNTS 11 12 0 0 0
M  V30 BEGIN ATOM
M  V30 1 Cl 1.8976 3.8476 0.0 0
M  V30 2 C 1.5885 2.8966 0.0 0
M  V30 3 C 2.2577 2.1534 0.0 0
M  V30 4 C 0.6104 2.6887 0.0 0
M  V30 5 C 1.9487 1.2024 0.0 0
M  V30 6 C 0.3014 1.7376 0.0 0
M  V30 7 C 0.9705 0.9945 0.0 0
M  V30 8 C 2.4487 0.3364 0.0 0
M  V30 9 B 0.866 0.0 0.0 0
M  V30 10 O 1.7795 -0.4067 0.0 0
M  V30 11 O 0.0 -0.5 0.0 0
M  V30 END ATOM
M  V30 BEGIN BOND
M  V30 1 1 1 2
M  V30 2 2 2 3
M  V30 3 1 2 4
M  V30 4 1 3 5
M  V30 5 2 4 6
M  V30 6 2 5 7
M  V30 7 1 5 8
M  V30 8 1 7 9
M  V30 9 1 8 10
M  V30 10 1 9 11
M  V30 11 1 6 7
M  V30 12 1 9 10
M  V30 END BOND
M  V30 END CTAB
M  END
>  <Column 1>
19

>  <Column 2>
PandemicResponseBox - Plate A

>  <Column 3>
C04

>  <Column 4>
MMV1634363

>  <Column 5>
10 mM

>  <Column 6>
ANTIFUNGALS

>  <Column 7>


>  <Column 8>
None

>  <Column 9>
AN-2718

>  <Column 10>
ClC2=CC1=C(B(O)OC1)C=C2

>  <Column 11>
CHEMBL211538

>  <Column 12>
WO-2006089067

>  <Column 13>
168.4

>  <Column 14>
C7 H6 B Cl O2

>  <Tox-Glu>
ATCTOX

>  <Column 15>


>  <Column 16>
101 

>  <Column 17>
101 

>  <Column 18>
92 

>  <Column 19>


>  <Tox-Gal>
CTOXGAL

>  <Column 20>


>  <Column 21>
97 

>  <Column 22>
94 

>  <Column 23>
97 

>  <Column 24>


>  <Column 25>


>  <PAMPA>
PAMPA

>  <Column 26>
undetected

>  <Column 27>
low sensitivity

>  <Column 28>


>  <Mouse>
ATMETMOU

>  <Column 29>


>  <Column 30>
Not determined; Low sensitivity

$$$$
Compound 21
Actelion Java MolfileCreator 2.0

  0  0  0  0  0  0              0 V3000
M  V30 BEGIN CTAB
M  V30 COUNTS 22 23 0 0 0
M  V30 BEGIN ATOM
M  V30 1 N 2.598 0.0 0.0 0
M  V30 2 C 3.4641 -0.5 0.0 0
M  V30 3 C 1.732 -0.5 0.0 0
M  V30 4 C 2.598 1.0 0.0 0
M  V30 5 C 4.3301 0.0 0.0 0
M  V30 6 C 0.866 0.0 0.0 0
M  V30 7 C 5.1961 -0.4999 0.0 0
M  V30 8 C 4.3301 0.9999 0.0 0
M  V30 9 C 0.0 -0.5 0.0 0
M  V30 10 C 6.0621 0.0 0.0 0
M  V30 11 C 5.1961 -1.4999 0.0 0
M  V30 12 C 5.1961 1.4999 0.0 0
M  V30 13 C -0.866 0.0 0.0 0
M  V30 14 C 6.0621 1.0 0.0 0
M  V30 15 C 6.9282 -0.4999 0.0 0
M  V30 16 C 6.0621 -1.9999 0.0 0
M  V30 17 C -1.732 0.4999 0.0 0
M  V30 18 C 6.9282 -1.4999 0.0 0
M  V30 19 C -2.598 0.9999 0.0 0
M  V30 20 C -2.098 1.866 0.0 0
M  V30 21 C -3.4641 1.4999 0.0 0
M  V30 22 C -3.098 0.1339 0.0 0
M  V30 END ATOM
M  V30 BEGIN BOND
M  V30 1 1 1 2
M  V30 2 1 1 3
M  V30 3 1 1 4
M  V30 4 1 2 5
M  V30 5 1 3 6
M  V30 6 1 5 7
M  V30 7 2 5 8
M  V30 8 2 6 9
M  V30 9 1 7 10
M  V30 10 2 7 11
M  V30 11 1 8 12
M  V30 12 1 9 13
M  V30 13 1 10 14
M  V30 14 2 10 15
M  V30 15 1 11 16
M  V30 16 3 13 17
M  V30 17 1 15 18
M  V30 18 1 17 19
M  V30 19 1 19 20
M  V30 20 1 19 21
M  V30 21 1 19 22
M  V30 22 2 12 14
M  V30 23 2 16 18
M  V30 END BOND
M  V30 END CTAB
M  END
>  <Column 1>
20

>  <Column 2>
PandemicResponseBox - Plate A

>  <Column 3>
D04

>  <Column 4>
MMV1634359

>  <Column 5>
10 mM

>  <Column 6>
ANTIFUNGALS

>  <Column 7>
1

>  <Column 8>
Hydrochloric acid

>  <Column 9>
Terbinafine

>  <Column 10>
N(CC1=CC=CC2=CC=CC=C12)(C\C=C\C#CC(C)(C)C)C

>  <Column 11>
CHEMBL822

>  <Column 12>


>  <Column 13>
327.9

>  <Column 14>
C21 H25 N

>  <Tox-Glu>
ATCTOX

>  <Column 15>


>  <Column 16>
98 

>  <Column 17>
70 

>  <Column 18>
37 

>  <Column 19>


>  <Tox-Gal>
CTOXGAL

>  <Column 20>


>  <Column 21>
94 

>  <Column 22>
45 

>  <Column 23>
1 

>  <Column 24>


>  <Column 25>


>  <PAMPA>
PAMPA

>  <Column 26>
456

>  <Column 27>


>  <Column 28>


>  <Mouse>
ATMETMOU

>  <Column 29>
226

>  <Column 30>


$$$$
Compound 22
Actelion Java MolfileCreator 2.0

  0  0  0  0  0  0              0 V3000
M  V30 BEGIN CTAB
M  V30 COUNTS 28 31 0 0 0
M  V30 BEGIN ATOM
M  V30 1 F 12.9903 -0.75 0.0 0
M  V30 2 C 12.9903 -2.25 0.0 0
M  V30 3 C 11.6913 -3.0 0.0 0
M  V30 4 C 14.2894 -3.0 0.0 0
M  V30 5 C 10.3923 -2.25 0.0 0
M  V30 6 C 11.6913 -4.5 0.0 0
M  V30 7 C 14.2894 -4.5 0.0 0
M  V30 8 C 10.3923 -0.75 0.0 0
M  V30 9 C 9.0932 -3.0 0.0 0
M  V30 10 C 12.9903 -5.25 0.0 0
M  V30 11 C 9.0932 0.0 0.0 0
M  V30 12 C 7.7942 -2.25 0.0 0
M  V30 13 C 7.7942 -0.75 0.0 0
M  V30 14 C 6.4951 0.0 0.0 0
M  V30 15 N 5.1961 -0.75 0.0 0
M  V30 16 C 3.8971 0.0 0.0 0
M  V30 17 O 3.8971 1.5 0.0 0
M  V30 18 C 2.598 -0.75 0.0 0
M  V30 19 C 1.299 0.0 0.0 0
M  V30 20 C 0.0 -0.75 0.0 0
M  V30 21 C -1.299 0.0 0.0 0
M  V30 22 C 0.0 -2.2499 0.0 0
M  V30 23 C -2.598 -0.7499 0.0 0
M  V30 24 C -1.299 -2.9999 0.0 0
M  V30 25 O -4.0246 -0.2864 0.0 0
M  V30 26 C -2.598 -2.2499 0.0 0
M  V30 27 C -4.9063 -1.4999 0.0 0
M  V30 28 O -4.0246 -2.7135 0.0 0
M  V30 END ATOM
M  V30 BEGIN BOND
M  V30 1 1 1 2
M  V30 2 2 2 3
M  V30 3 1 2 4
M  V30 4 1 3 5
M  V30 5 1 3 6
M  V30 6 2 4 7
M  V30 7 2 5 8
M  V30 8 1 5 9
M  V30 9 2 6 10
M  V30 10 1 8 11
M  V30 11 2 9 12
M  V30 12 2 11 13
M  V30 13 1 13 14
M  V30 14 1 14 15
M  V30 15 1 15 16
M  V30 16 2 16 17
M  V30 17 1 16 18
M  V30 18 1 18 19
M  V30 19 1 19 20
M  V30 20 2 20 21
M  V30 21 1 20 22
M  V30 22 1 21 23
M  V30 23 2 22 24
M  V30 24 1 23 25
M  V30 25 2 23 26
M  V30 26 1 25 27
M  V30 27 1 26 28
M  V30 28 1 7 10
M  V30 29 1 12 13
M  V30 30 1 24 26
M  V30 31 1 27 28
M  V30 END BOND
M  V30 END CTAB
M  END
>  <Column 1>
21

>  <Column 2>
PandemicResponseBox - Plate A

>  <Column 3>
E04

>  <Column 4>
MMV1782110

>  <Column 5>
10 mM

>  <Column 6>
ANTIFUNGALS

>  <Column 7>


>  <Column 8>
None

>  <Column 9>


>  <Column 10>
FC4=C(C3=CC=C(CNC(=O)CCC2=CC1=C(OCO1)C=C2)C=C3)C=CC=C4

>  <Column 11>
NA

>  <Column 12>
Bioorganic & Medicinal Chemistry Letters�(2017),�27(19),�4571-4575

>  <Column 13>
377.4

>  <Column 14>
C23 H20 F N O3

>  <Tox-Glu>
ATCTOX

>  <Column 15>


>  <Column 16>
97 

>  <Column 17>
86 

>  <Column 18>
66 

>  <Column 19>


>  <Tox-Gal>
CTOXGAL

>  <Column 20>


>  <Column 21>
97 

>  <Column 22>
86 

>  <Column 23>
76 

>  <Column 24>


>  <Column 25>


>  <PAMPA>
PAMPA

>  <Column 26>
242

>  <Column 27>


>  <Column 28>


>  <Mouse>
ATMETMOU

>  <Column 29>
>768

>  <Column 30>


$$$$
Compound 23
Actelion Java MolfileCreator 2.0

  0  0  0  0  0  0              0 V3000
M  V30 BEGIN CTAB
M  V30 COUNTS 27 30 0 0 0
M  V30 BEGIN ATOM
M  V30 1 S 2.6455 -0.0932 0.0 0
M  V30 2 C 1.732 -0.5 0.0 0
M  V30 3 C 3.3147 -0.8364 0.0 0
M  V30 4 N 1.8365 -1.4945 0.0 0
M  V30 5 N 0.866 0.0 0.0 0
M  V30 6 C 2.8147 -1.7024 0.0 0
M  V30 7 C 0.0 -0.5 0.0 0
M  V30 8 C 3.2214 -2.6159 0.0 0
M  V30 9 N -0.866 0.0 0.0 0
M  V30 10 N 0.0 -1.4999 0.0 0
M  V30 11 C 2.6336 -3.4249 0.0 0
M  V30 12 C 4.2159 -2.7205 0.0 0
M  V30 13 C -1.732 -0.4999 0.0 0
M  V30 14 C -0.866 -1.9999 0.0 0
M  V30 15 O 1.6391 -3.3204 0.0 0
M  V30 16 C 3.0404 -4.3385 0.0 0
M  V30 17 C 4.6227 -3.634 0.0 0
M  V30 18 C -1.732 -1.4999 0.0 0
M  V30 19 C 1.0513 -4.1294 0.0 0
M  V30 20 C 4.0349 -4.443 0.0 0
M  V30 21 C 0.0568 -4.0249 0.0 0
M  V30 22 C 1.4581 -5.043 0.0 0
M  V30 23 C -0.5309 -4.8339 0.0 0
M  V30 24 C -0.3498 -3.1114 0.0 0
M  V30 25 C 0.8703 -5.852 0.0 0
M  V30 26 C -0.1241 -5.7475 0.0 0
M  V30 27 C -0.7119 -6.5565 0.0 0
M  V30 END ATOM
M  V30 BEGIN BOND
M  V30 1 1 1 2
M  V30 2 1 1 3
M  V30 3 2 2 4
M  V30 4 1 2 5
M  V30 5 2 3 6
M  V30 6 1 5 7
M  V30 7 1 6 8
M  V30 8 2 7 9
M  V30 9 1 7 10
M  V30 10 2 8 11
M  V30 11 1 8 12
M  V30 12 1 9 13
M  V30 13 1 10 14
M  V30 14 1 11 15
M  V30 15 1 11 16
M  V30 16 2 12 17
M  V30 17 1 13 18
M  V30 18 1 15 19
M  V30 19 2 16 20
M  V30 20 2 19 21
M  V30 21 1 19 22
M  V30 22 1 21 23
M  V30 23 1 21 24
M  V30 24 2 22 25
M  V30 25 2 23 26
M  V30 26 1 26 27
M  V30 27 1 4 6
M  V30 28 1 14 18
M  V30 29 1 17 20
M  V30 30 1 25 26
M  V30 END BOND
M  V30 END CTAB
M  END
>  <Column 1>
22

>  <Column 2>
PandemicResponseBox - Plate A

>  <Column 3>
F04

>  <Column 4>
MMV1634493

>  <Column 5>
10 mM

>  <Column 6>
ANTIFUNGALS

>  <Column 7>


>  <Column 8>
None

>  <Column 9>
Abafungin

>  <Column 10>
S1C(=NC(=C1)C3=C(OC2=C(C=C(C)C=C2)C)C=CC=C3)NC4=NCCCN4

>  <Column 11>
CHEMBL3989547

>  <Column 12>


>  <Column 13>
378.5

>  <Column 14>
C21 H22 N4 O S

>  <Tox-Glu>
ATCTOX

>  <Column 15>


>  <Column 16>
74 

>  <Column 17>
2 

>  <Column 18>
1 

>  <Column 19>


>  <Tox-Gal>
CTOXGAL

>  <Column 20>


>  <Column 21>
0 

>  <Column 22>
0 

>  <Column 23>
1 

>  <Column 24>


>  <Column 25>


>  <PAMPA>
PAMPA

>  <Column 26>
88

>  <Column 27>


>  <Column 28>


>  <Mouse>
ATMETMOU

>  <Column 29>
190

>  <Column 30>


$$$$
Compound 24
Actelion Java MolfileCreator 2.0

  0  0  0  0  0  0              0 V3000
M  V30 BEGIN CTAB
M  V30 COUNTS 14 15 0 0 0
M  V30 BEGIN ATOM
M  V30 1 O 2.598 -2.25 0.0 0
M  V30 2 C 2.598 -0.75 0.0 0
M  V30 3 O 3.8971 0.0 0.0 0
M  V30 4 N 1.299 0.0 0.0 0
M  V30 5 C 5.1961 -0.75 0.0 0
M  V30 6 C 0.0 -0.75 0.0 0
M  V30 7 N -1.3703 -0.1398 0.0 0
M  V30 8 N -0.1567 -2.2417 0.0 0
M  V30 9 C -2.374 -1.2546 0.0 0
M  V30 10 C -1.624 -2.5536 0.0 0
M  V30 11 C -3.874 -1.2546 0.0 0
M  V30 12 C -2.374 -3.8526 0.0 0
M  V30 13 C -4.624 -2.5536 0.0 0
M  V30 14 C -3.874 -3.8526 0.0 0
M  V30 END ATOM
M  V30 BEGIN BOND
M  V30 1 2 1 2
M  V30 2 1 2 3
M  V30 3 1 2 4
M  V30 4 1 3 5
M  V30 5 1 4 6
M  V30 6 2 6 7
M  V30 7 1 6 8
M  V30 8 1 7 9
M  V30 9 1 8 10
M  V30 10 1 9 11
M  V30 11 1 10 12
M  V30 12 2 11 13
M  V30 13 2 12 14
M  V30 14 2 9 10
M  V30 15 1 13 14
M  V30 END BOND
M  V30 END CTAB
M  END
>  <Column 1>
23

>  <Column 2>
PandemicResponseBox - Plate A

>  <Column 3>
G04

>  <Column 4>
MMV344625

>  <Column 5>
10 mM

>  <Column 6>
ANTIFUNGALS

>  <Column 7>


>  <Column 8>
None

>  <Column 9>
Carbendazim

>  <Column 10>
O=C(OC)NC1=NC2=C([NH]1)C=CC=C2

>  <Column 11>
CHEMBL70971

>  <Column 12>


>  <Column 13>
191.2

>  <Column 14>
C9H9N3O2

>  <Tox-Glu>
ATCTOX

>  <Column 15>


>  <Column 16>
101 

>  <Column 17>
100 

>  <Column 18>
95 

>  <Column 19>


>  <Tox-Gal>
CTOXGAL

>  <Column 20>


>  <Column 21>
100 

>  <Column 22>
96 

>  <Column 23>
103 

>  <Column 24>


>  <Column 25>


>  <PAMPA>
PAMPA

>  <Column 26>
66

>  <Column 27>


>  <Column 28>


>  <Mouse>
ATMETMOU

>  <Column 29>
198

>  <Column 30>


$$$$
Compound 25
Actelion Java MolfileCreator 2.0

  0  0  0  0  0  0              0 V3000
M  V30 BEGIN CTAB
M  V30 COUNTS 23 24 0 0 0
M  V30 BEGIN ATOM
M  V30 1 O 7.7942 -2.25 0.0 0
M  V30 2 C 7.7942 -0.75 0.0 0 CFG=2
M  V30 3 C 6.4952 -3.0 0.0 0 CFG=1
M  V30 4 C 6.4952 0.0 0.0 0
M  V30 5 C 9.0932 0.0 0.0 0
M  V30 6 C 5.1961 -2.25 0.0 0
M  V30 7 C 6.4952 -4.5 0.0 0
M  V30 8 N 5.1961 -0.75 0.0 0
M  V30 9 C 3.8971 0.0 0.0 0
M  V30 10 C 2.598 -0.75 0.0 0
M  V30 11 C 1.299 0.0 0.0 0
M  V30 12 C 2.598 -2.25 0.0 0
M  V30 13 C 0.0 -0.75 0.0 0
M  V30 14 C -1.299 0.0 0.0 0
M  V30 15 C 0.0 -2.25 0.0 0
M  V30 16 C -2.598 -0.75 0.0 0
M  V30 17 C -1.299 -3.0 0.0 0
M  V30 18 C -2.598 -2.25 0.0 0
M  V30 19 C -3.8971 -3.0 0.0 0
M  V30 20 C -5.1961 -2.25 0.0 0
M  V30 21 C -4.6471 -4.299 0.0 0
M  V30 22 C -3.1471 -4.299 0.0 0
M  V30 23 C -6.4952 -3.0 0.0 0
M  V30 END ATOM
M  V30 BEGIN BOND
M  V30 1 1 2 1
M  V30 2 1 3 1
M  V30 3 1 2 4
M  V30 4 1 2 5 CFG=3
M  V30 5 1 3 6
M  V30 6 1 3 7 CFG=3
M  V30 7 1 4 8
M  V30 8 1 8 9
M  V30 9 1 9 10
M  V30 10 1 10 11
M  V30 11 1 10 12
M  V30 12 1 11 13
M  V30 13 2 13 14
M  V30 14 1 13 15
M  V30 15 1 14 16
M  V30 16 2 15 17
M  V30 17 2 16 18
M  V30 18 1 18 19
M  V30 19 1 19 20
M  V30 20 1 19 21
M  V30 21 1 19 22
M  V30 22 1 20 23
M  V30 23 1 6 8
M  V30 24 1 17 18
M  V30 END BOND
M  V30 BEGIN COLLECTION
M  V30 MDLV30/STEABS ATOMS=(2 2 3)
M  V30 END COLLECTION
M  V30 END CTAB
M  END
>  <Column 1>
24

>  <Column 2>
PandemicResponseBox - Plate A

>  <Column 3>
H04

>  <Column 4>
MMV1634358

>  <Column 5>
10 mM

>  <Column 6>
ANTIFUNGALS

>  <Column 7>
1

>  <Column 8>
Hydrochloric acid

>  <Column 9>
Amorolfine

>  <Column 10>
O2[C@H](CN(CC(CC1=CC=C(C(CC)(C)C)C=C1)C)C[C@H]2C)C

>  <Column 11>
CHEMBL489411

>  <Column 12>


>  <Column 13>
354

>  <Column 14>
C21 H35 N O

>  <Tox-Glu>
ATCTOX

>  <Column 15>


>  <Column 16>
97 

>  <Column 17>
54 

>  <Column 18>
1 

>  <Column 19>


>  <Tox-Gal>
CTOXGAL

>  <Column 20>


>  <Column 21>
91 

>  <Column 22>
0 

>  <Column 23>
0 

>  <Column 24>


>  <Column 25>


>  <PAMPA>
PAMPA

>  <Column 26>
434

>  <Column 27>


>  <Column 28>


>  <Mouse>
ATMETMOU

>  <Column 29>
235

>  <Column 30>


$$$$
Compound 26
Actelion Java MolfileCreator 2.0

  0  0  0  0  0  0              0 V3000
M  V30 BEGIN CTAB
M  V30 COUNTS 34 38 0 0 0
M  V30 BEGIN ATOM
M  V30 1 F 8.5348 -1.2373 0.0 0
M  V30 2 C 8.6393 -2.2318 0.0 0
M  V30 3 F 9.6338 -2.1273 0.0 0
M  V30 4 F 8.7439 -3.2264 0.0 0
M  V30 5 C 7.6448 -2.3364 0.0 0
M  V30 6 N 6.9757 -1.5932 0.0 0
M  V30 7 C 7.1448 -3.2024 0.0 0
M  V30 8 N 6.0621 -2.0 0.0 0
M  V30 9 C 6.1667 -2.9945 0.0 0
M  V30 10 C 5.1961 -1.4999 0.0 0
M  V30 11 C 5.4235 -3.6636 0.0 0
M  V30 12 C 5.1961 -0.5 0.0 0
M  V30 13 C 4.3301 -1.9999 0.0 0
M  V30 14 C 4.4725 -3.3546 0.0 0
M  V30 15 C 5.6314 -4.6418 0.0 0
M  V30 16 C 4.3301 0.0 0.0 0
M  V30 17 C 3.4641 -1.5 0.0 0
M  V30 18 C 3.7293 -4.0237 0.0 0
M  V30 19 C 4.8883 -5.3109 0.0 0
M  V30 20 C 3.4641 -0.5 0.0 0
M  V30 21 C 3.9372 -5.0019 0.0 0
M  V30 22 C 2.7783 -3.7147 0.0 0
M  V30 23 N 2.598 0.0 0.0 0
M  V30 24 C 3.1941 -5.671 0.0 0
M  V30 25 C 2.0351 -4.3838 0.0 0
M  V30 26 C 1.732 -0.5 0.0 0
M  V30 27 C 2.243 -5.362 0.0 0
M  V30 28 C 3.402 -6.6491 0.0 0
M  V30 29 O 1.732 -1.5 0.0 0
M  V30 30 C 0.866 0.0 0.0 0
M  V30 31 C 1.4999 -6.0311 0.0 0
M  V30 32 C 2.6588 -7.3183 0.0 0
M  V30 33 N 0.0 -0.5 0.0 0
M  V30 34 C 1.7078 -7.0093 0.0 0
M  V30 END ATOM
M  V30 BEGIN BOND
M  V30 1 1 1 2
M  V30 2 1 2 3
M  V30 3 1 2 4
M  V30 4 1 2 5
M  V30 5 2 5 6
M  V30 6 1 5 7
M  V30 7 1 6 8
M  V30 8 2 7 9
M  V30 9 1 8 10
M  V30 10 1 9 11
M  V30 11 2 10 12
M  V30 12 1 10 13
M  V30 13 2 11 14
M  V30 14 1 11 15
M  V30 15 1 12 16
M  V30 16 2 13 17
M  V30 17 1 14 18
M  V30 18 2 15 19
M  V30 19 2 16 20
M  V30 20 1 18 21
M  V30 21 2 18 22
M  V30 22 1 20 23
M  V30 23 2 21 24
M  V30 24 1 22 25
M  V30 25 1 23 26
M  V30 26 1 24 27
M  V30 27 1 24 28
M  V30 28 2 26 29
M  V30 29 1 26 30
M  V30 30 1 27 31
M  V30 31 2 28 32
M  V30 32 1 30 33
M  V30 33 2 31 34
M  V30 34 1 8 9
M  V30 35 1 17 20
M  V30 36 1 19 21
M  V30 37 2 25 27
M  V30 38 1 32 34
M  V30 END BOND
M  V30 END CTAB
M  END
>  <Column 1>
25

>  <Column 2>
PandemicResponseBox - Plate A

>  <Column 3>
A05

>  <Column 4>
MMV1578560

>  <Column 5>
10 mM

>  <Column 6>
ANTIFUNGALS

>  <Column 7>


>  <Column 8>
None

>  <Column 9>
OSU-03012

>  <Column 10>
FC(F)(F)C2=N[N](C1=CC=C(NC(=O)CN)C=C1)C(=C2)C4=CC3=CC=C5C(=C3C=C4)C=CC=C5

>  <Column 11>
CHEMBL1650595

>  <Column 12>


>  <Column 13>
460.5

>  <Column 14>
C26 H19 F3 N4 O

>  <Tox-Glu>
ATCTOX

>  <Column 15>


>  <Column 16>
0 

>  <Column 17>
0 

>  <Column 18>
0 

>  <Column 19>


>  <Tox-Gal>
CTOXGAL

>  <Column 20>


>  <Column 21>
1 

>  <Column 22>
0 

>  <Column 23>
1 

>  <Column 24>


>  <Column 25>


>  <PAMPA>
PAMPA

>  <Column 26>
12

>  <Column 27>


>  <Column 28>


>  <Mouse>
ATMETMOU

>  <Column 29>
12

>  <Column 30>


$$$$
Compound 27
Actelion Java MolfileCreator 2.0

  0  0  0  0  0  0              0 V3000
M  V30 BEGIN CTAB
M  V30 COUNTS 28 31 0 0 0
M  V30 BEGIN ATOM
M  V30 1 O 1.732 -0.5 0.0 0
M  V30 2 C 0.866 0.0 0.0 0
M  V30 3 O 0.866 1.0 0.0 0
M  V30 4 C 0.0 -0.5 0.0 0
M  V30 5 C -0.866 0.0 0.0 0
M  V30 6 C 0.0 -1.4999 0.0 0
M  V30 7 C -1.732 -0.4999 0.0 0
M  V30 8 C -0.866 -1.9999 0.0 0
M  V30 9 C -1.732 -1.4999 0.0 0
M  V30 10 N -2.598 -1.9999 0.0 0
M  V30 11 N -3.5116 -1.5932 0.0 0
M  V30 12 C -2.7026 -2.9945 0.0 0
M  V30 13 C -4.1807 -2.3364 0.0 0
M  V30 14 N -3.6807 -3.2024 0.0 0
M  V30 15 C -1.9594 -3.6636 0.0 0
M  V30 16 C -5.1752 -2.2318 0.0 0
M  V30 17 C -2.1673 -4.6418 0.0 0
M  V30 18 C -1.0084 -3.3546 0.0 0
M  V30 19 C -5.582 -1.3183 0.0 0
M  V30 20 C -5.763 -3.0408 0.0 0
M  V30 21 O -3.1184 -4.9508 0.0 0
M  V30 22 C -1.4242 -5.3109 0.0 0
M  V30 23 C -0.2652 -4.0237 0.0 0
M  V30 24 O -4.9942 -0.5093 0.0 0
M  V30 25 C -6.5765 -1.2138 0.0 0
M  V30 26 C -6.7575 -2.9363 0.0 0
M  V30 27 C -0.4731 -5.0019 0.0 0
M  V30 28 C -7.1643 -2.0228 0.0 0
M  V30 END ATOM
M  V30 BEGIN BOND
M  V30 1 2 1 2
M  V30 2 1 2 3
M  V30 3 1 2 4
M  V30 4 2 4 5
M  V30 5 1 4 6
M  V30 6 1 5 7
M  V30 7 2 6 8
M  V30 8 2 7 9
M  V30 9 1 9 10
M  V30 10 1 10 11
M  V30 11 1 10 12
M  V30 12 2 11 13
M  V30 13 2 12 14
M  V30 14 1 12 15
M  V30 15 1 13 16
M  V30 16 2 15 17
M  V30 17 1 15 18
M  V30 18 2 16 19
M  V30 19 1 16 20
M  V30 20 1 17 21
M  V30 21 1 17 22
M  V30 22 2 18 23
M  V30 23 1 19 24
M  V30 24 1 19 25
M  V30 25 2 20 26
M  V30 26 2 22 27
M  V30 27 2 25 28
M  V30 28 1 8 9
M  V30 29 1 13 14
M  V30 30 1 23 27
M  V30 31 1 26 28
M  V30 END BOND
M  V30 END CTAB
M  END
>  <Column 1>
26

>  <Column 2>
PandemicResponseBox - Plate A

>  <Column 3>
B05

>  <Column 4>
MMV640014

>  <Column 5>
10 mM

>  <Column 6>
ANTIFUNGALS

>  <Column 7>


>  <Column 8>
None

>  <Column 9>
Deferasirox

>  <Column 10>
O=C(O)C4=CC=C([N]2N=C(C1=C(O)C=CC=C1)N=C2C3=C(O)C=CC=C3)C=C4

>  <Column 11>
CHEMBL550348

>  <Column 12>
US 20150366948 ,Journal of Clinical Investigation (2007), 117(9), 2649-2657.

>  <Column 13>
373.4

>  <Column 14>
C21H15N3O4

>  <Tox-Glu>
ATCTOX

>  <Column 15>


>  <Column 16>
82 

>  <Column 17>
82 

>  <Column 18>
63 

>  <Column 19>


>  <Tox-Gal>
CTOXGAL

>  <Column 20>


>  <Column 21>
85 

>  <Column 22>
78 

>  <Column 23>
75 

>  <Column 24>


>  <Column 25>


>  <PAMPA>
PAMPA

>  <Column 26>
64

>  <Column 27>


>  <Column 28>


>  <Mouse>
ATMETMOU

>  <Column 29>
-5

>  <Column 30>


$$$$
Compound 28
Actelion Java MolfileCreator 2.0

  0  0  0  0  0  0              0 V3000
M  V30 BEGIN CTAB
M  V30 COUNTS 9 9 0 0 0
M  V30 BEGIN ATOM
M  V30 1 F 1.299 0.0 0.0 0
M  V30 2 C 0.0 -0.75 0.0 0
M  V30 3 C -1.299 0.0 0.0 0
M  V30 4 C 0.0 -2.25 0.0 0
M  V30 5 N -2.598 -0.7499 0.0 0
M  V30 6 N -1.299 1.5 0.0 0
M  V30 7 N -1.299 -2.9999 0.0 0
M  V30 8 C -2.598 -2.2499 0.0 0
M  V30 9 O -3.8971 -2.9999 0.0 0
M  V30 END ATOM
M  V30 BEGIN BOND
M  V30 1 1 1 2
M  V30 2 2 2 3
M  V30 3 1 2 4
M  V30 4 1 3 5
M  V30 5 1 3 6
M  V30 6 2 4 7
M  V30 7 2 5 8
M  V30 8 1 8 9
M  V30 9 1 7 8
M  V30 END BOND
M  V30 END CTAB
M  END
>  <Column 1>
27

>  <Column 2>
PandemicResponseBox - Plate A

>  <Column 3>
C05

>  <Column 4>
MMV004508

>  <Column 5>
10 mM

>  <Column 6>
ANTIFUNGALS

>  <Column 7>


>  <Column 8>
None

>  <Column 9>
5-Fluorocytosin

>  <Column 10>
FC1=C(N=C(O)N=C1)N

>  <Column 11>
CHEMBL1463

>  <Column 12>


>  <Column 13>
129.1

>  <Column 14>
C4H4FN3O

>  <Tox-Glu>
ATCTOX

>  <Column 15>


>  <Column 16>
104 

>  <Column 17>
105 

>  <Column 18>
100 

>  <Column 19>


>  <Tox-Gal>
CTOXGAL

>  <Column 20>


>  <Column 21>
99 

>  <Column 22>
98 

>  <Column 23>
102 

>  <Column 24>


>  <Column 25>


>  <PAMPA>
PAMPA

>  <Column 26>
undetected

>  <Column 27>
low sensitivity

>  <Column 28>


>  <Mouse>
ATMETMOU

>  <Column 29>


>  <Column 30>
Not determined; Low sensitivity

$$$$
Compound 29
Actelion Java MolfileCreator 2.0

  0  0  0  0  0  0              0 V3000
M  V30 BEGIN CTAB
M  V30 COUNTS 25 27 0 0 0
M  V30 BEGIN ATOM
M  V30 1 O 3.4641 -0.5 0.0 0
M  V30 2 C 2.598 0.0 0.0 0
M  V30 3 N 2.598 1.0 0.0 0
M  V30 4 N 1.732 -0.5 0.0 0
M  V30 5 C 3.4641 1.5 0.0 0
M  V30 6 C 1.732 1.4999 0.0 0
M  V30 7 C 0.866 0.0 0.0 0
M  V30 8 C 3.4641 2.5 0.0 0
M  V30 9 C 4.3301 1.0 0.0 0
M  V30 10 C 1.732 2.5 0.0 0
M  V30 11 O 0.866 1.0 0.0 0
M  V30 12 C 0.0 -0.5 0.0 0
M  V30 13 C 4.3301 3.0 0.0 0
M  V30 14 C 2.598 3.0 0.0 0
M  V30 15 C 5.1961 1.4999 0.0 0
M  V30 16 C -0.866 0.0 0.0 0
M  V30 17 C 0.0 -1.4999 0.0 0
M  V30 18 C 5.1961 2.4999 0.0 0
M  V30 19 C -1.732 -0.4999 0.0 0
M  V30 20 C -0.866 -1.9999 0.0 0
M  V30 21 C -1.732 -1.4999 0.0 0
M  V30 22 C -2.598 -1.9999 0.0 0
M  V30 23 C -2.098 -2.866 0.0 0
M  V30 24 C -3.4641 -2.4999 0.0 0
M  V30 25 C -3.098 -1.1339 0.0 0
M  V30 END ATOM
M  V30 BEGIN BOND
M  V30 1 2 1 2
M  V30 2 1 2 3
M  V30 3 1 2 4
M  V30 4 1 3 5
M  V30 5 1 3 6
M  V30 6 1 4 7
M  V30 7 2 5 8
M  V30 8 1 5 9
M  V30 9 1 6 10
M  V30 10 2 7 11
M  V30 11 1 7 12
M  V30 12 1 8 13
M  V30 13 1 8 14
M  V30 14 2 9 15
M  V30 15 2 12 16
M  V30 16 1 12 17
M  V30 17 2 13 18
M  V30 18 1 16 19
M  V30 19 2 17 20
M  V30 20 2 19 21
M  V30 21 1 21 22
M  V30 22 1 22 23
M  V30 23 1 22 24
M  V30 24 1 22 25
M  V30 25 1 10 14
M  V30 26 1 15 18
M  V30 27 1 20 21
M  V30 END BOND
M  V30 END CTAB
M  END
>  <Column 1>
28

>  <Column 2>
PandemicResponseBox - Plate A

>  <Column 3>
D05

>  <Column 4>
MMV1782212

>  <Column 5>
10 mM

>  <Column 6>
ANTIFUNGALS

>  <Column 7>


>  <Column 8>
None

>  <Column 9>


>  <Column 10>
CC(C)(C)c1ccc(cc1)C(=O)NC(=O)N2CCCc3ccccc23

>  <Column 11>
NA

>  <Column 12>
Bioorganic & Medicinal Chemistry Letters�(2016),�26(10),�2544-2546

>  <Column 13>
336.4

>  <Column 14>
C21 H24 N2 O2

>  <Tox-Glu>
ATCTOX

>  <Column 15>


>  <Column 16>
106 

>  <Column 17>
106 

>  <Column 18>
96 

>  <Column 19>


>  <Tox-Gal>
CTOXGAL

>  <Column 20>


>  <Column 21>
100 

>  <Column 22>
95 

>  <Column 23>
101 

>  <Column 24>


>  <Column 25>


>  <PAMPA>
PAMPA

>  <Column 26>
310

>  <Column 27>


>  <Column 28>


>  <Mouse>
ATMETMOU

>  <Column 29>


>  <Column 30>
Not determined; Low sensitivity

$$$$
Compound 30
Actelion Java MolfileCreator 2.0

  0  0  0  0  0  0              0 V3000
M  V30 BEGIN CTAB
M  V30 COUNTS 20 21 0 0 0
M  V30 BEGIN ATOM
M  V30 1 Cl 7.7942 -2.0 0.0 0
M  V30 2 C 6.9282 -1.5 0.0 0
M  V30 3 C 6.9282 -0.5 0.0 0
M  V30 4 C 6.0621 -2.0 0.0 0
M  V30 5 C 6.0621 0.0 0.0 0
M  V30 6 C 5.1961 -1.5 0.0 0
M  V30 7 C 5.1961 -0.5 0.0 0
M  V30 8 N 4.3301 0.0 0.0 0
M  V30 9 C 3.4641 -0.5 0.0 0
M  V30 10 S 3.4641 -1.5 0.0 0
M  V30 11 N 2.598 0.0 0.0 0
M  V30 12 N 1.732 -0.5 0.0 0
M  V30 13 C 0.866 0.0 0.0 0
M  V30 14 O 0.866 1.0 0.0 0
M  V30 15 C 0.0 -0.5 0.0 0
M  V30 16 C -0.866 0.0 0.0 0
M  V30 17 C 0.0 -1.4999 0.0 0
M  V30 18 C -1.732 -0.4999 0.0 0
M  V30 19 C -0.866 -1.9999 0.0 0
M  V30 20 N -1.732 -1.4999 0.0 0
M  V30 END ATOM
M  V30 BEGIN BOND
M  V30 1 1 1 2
M  V30 2 2 2 3
M  V30 3 1 2 4
M  V30 4 1 3 5
M  V30 5 2 4 6
M  V30 6 2 5 7
M  V30 7 1 7 8
M  V30 8 1 8 9
M  V30 9 2 9 10
M  V30 10 1 9 11
M  V30 11 1 11 12
M  V30 12 1 12 13
M  V30 13 2 13 14
M  V30 14 1 13 15
M  V30 15 2 15 16
M  V30 16 1 15 17
M  V30 17 1 16 18
M  V30 18 2 17 19
M  V30 19 2 18 20
M  V30 20 1 6 7
M  V30 21 1 19 20
M  V30 END BOND
M  V30 END CTAB
M  END
>  <Column 1>
29

>  <Column 2>
PandemicResponseBox - Plate A

>  <Column 3>
E05

>  <Column 4>
MMV1782227

>  <Column 5>
10 mM

>  <Column 6>
ANTIFUNGALS

>  <Column 7>


>  <Column 8>
None

>  <Column 9>
TSC-INH

>  <Column 10>
Clc1ccc(NC(=S)NNC(=O)c2ccncc2)cc1

>  <Column 11>
CHEMBL3127429

>  <Column 12>


>  <Column 13>
306.8

>  <Column 14>
C13 H11 Cl N4 O S

>  <Tox-Glu>
ATCTOX

>  <Column 15>


>  <Column 16>
108 

>  <Column 17>
109 

>  <Column 18>
104 

>  <Column 19>


>  <Tox-Gal>
CTOXGAL

>  <Column 20>


>  <Column 21>
99 

>  <Column 22>
100 

>  <Column 23>
105 

>  <Column 24>


>  <Column 25>


>  <PAMPA>
PAMPA

>  <Column 26>
38

>  <Column 27>


>  <Column 28>


>  <Mouse>
ATMETMOU

>  <Column 29>
-3

>  <Column 30>


$$$$
Compound 31
Actelion Java MolfileCreator 2.0

  0  0  0  0  0  0              0 V3000
M  V30 BEGIN CTAB
M  V30 COUNTS 12 13 0 0 0
M  V30 BEGIN ATOM
M  V30 1 Cl 1.8976 3.8476 0.0 0
M  V30 2 C 1.5885 2.8966 0.0 0
M  V30 3 C 2.2577 2.1534 0.0 0
M  V30 4 C 0.6104 2.6887 0.0 0
M  V30 5 F 3.2358 2.3614 0.0 0
M  V30 6 C 1.9487 1.2024 0.0 0
M  V30 7 C 0.3014 1.7376 0.0 0
M  V30 8 C 0.9705 0.9945 0.0 0
M  V30 9 C 2.4487 0.3364 0.0 0
M  V30 10 B 0.866 0.0 0.0 0
M  V30 11 O 1.7795 -0.4067 0.0 0
M  V30 12 O 0.0 -0.5 0.0 0
M  V30 END ATOM
M  V30 BEGIN BOND
M  V30 1 1 1 2
M  V30 2 2 2 3
M  V30 3 1 2 4
M  V30 4 1 3 5
M  V30 5 1 3 6
M  V30 6 2 4 7
M  V30 7 2 6 8
M  V30 8 1 6 9
M  V30 9 1 8 10
M  V30 10 1 9 11
M  V30 11 1 10 12
M  V30 12 1 7 8
M  V30 13 1 10 11
M  V30 END BOND
M  V30 END CTAB
M  END
>  <Column 1>
30

>  <Column 2>
PandemicResponseBox - Plate A

>  <Column 3>
F05

>  <Column 4>
MMV1782226

>  <Column 5>
10 mM

>  <Column 6>
ANTIFUNGALS

>  <Column 7>


>  <Column 8>
None

>  <Column 9>


>  <Column 10>
OB1OCc2c(F)c(Cl)ccc12

>  <Column 11>
NA

>  <Column 12>


>  <Column 13>
186.4

>  <Column 14>
C7 H5 B Cl F O2

>  <Tox-Glu>
ATCTOX

>  <Column 15>


>  <Column 16>
104 

>  <Column 17>
104 

>  <Column 18>
90 

>  <Column 19>


>  <Tox-Gal>
CTOXGAL

>  <Column 20>


>  <Column 21>
99 

>  <Column 22>
96 

>  <Column 23>
96 

>  <Column 24>


>  <Column 25>


>  <PAMPA>
PAMPA

>  <Column 26>
undetected

>  <Column 27>
low sensitivity

>  <Column 28>


>  <Mouse>
ATMETMOU

>  <Column 29>
34

>  <Column 30>
Low sensitivity

$$$$
Compound 32
Actelion Java MolfileCreator 2.0

  0  0  0  0  0  0              0 V3000
M  V30 BEGIN CTAB
M  V30 COUNTS 21 23 0 0 0
M  V30 BEGIN ATOM
M  V30 1 N 1.732 -0.5 0.0 0
M  V30 2 C 2.598 0.0 0.0 0 CFG=1
M  V30 3 C 0.866 0.0 0.0 0
M  V30 4 C 1.732 -1.5 0.0 0
M  V30 5 C 3.4641 -0.5 0.0 0
M  V30 6 C 2.598 1.0 0.0 0
M  V30 7 C 0.0 -0.5 0.0 0
M  V30 8 C 3.4641 -1.5 0.0 0
M  V30 9 C 4.3301 0.0 0.0 0
M  V30 10 C -0.866 0.0 0.0 0
M  V30 11 C 0.0 -1.4999 0.0 0
M  V30 12 C 4.3301 -2.0 0.0 0
M  V30 13 C 2.598 -1.9999 0.0 0
M  V30 14 C 5.1961 -0.5 0.0 0
M  V30 15 C -1.732 -0.4999 0.0 0
M  V30 16 C -0.866 -1.9999 0.0 0
M  V30 17 C 5.1961 -1.5 0.0 0
M  V30 18 C 4.3301 -3.0 0.0 0
M  V30 19 C 2.598 -2.9999 0.0 0
M  V30 20 C -1.732 -1.4999 0.0 0
M  V30 21 C 3.4641 -3.4999 0.0 0
M  V30 END ATOM
M  V30 BEGIN BOND
M  V30 1 1 2 1 CFG=3
M  V30 2 1 1 3
M  V30 3 1 1 4
M  V30 4 1 2 5
M  V30 5 1 2 6
M  V30 6 1 3 7
M  V30 7 1 5 8
M  V30 8 2 5 9
M  V30 9 2 7 10
M  V30 10 1 7 11
M  V30 11 1 8 12
M  V30 12 2 8 13
M  V30 13 1 9 14
M  V30 14 1 10 15
M  V30 15 2 11 16
M  V30 16 1 12 17
M  V30 17 2 12 18
M  V30 18 1 13 19
M  V30 19 2 15 20
M  V30 20 1 18 21
M  V30 21 2 14 17
M  V30 22 1 16 20
M  V30 23 2 19 21
M  V30 END BOND
M  V30 BEGIN COLLECTION
M  V30 MDLV30/STEABS ATOMS=(1 2)
M  V30 END COLLECTION
M  V30 END CTAB
M  END
>  <Column 1>
31

>  <Column 2>
PandemicResponseBox - Plate A

>  <Column 3>
G05

>  <Column 4>
MMV1782221

>  <Column 5>
10 mM

>  <Column 6>
ANTIFUNGALS

>  <Column 7>


>  <Column 8>
None

>  <Column 9>


>  <Column 10>
C[C@@H](N(C)Cc1ccccc1)c2cccc3ccccc23

>  <Column 11>
CHEMBL2426515

>  <Column 12>


>  <Column 13>
275.4

>  <Column 14>
C20 H21 N

>  <Tox-Glu>
ATCTOX

>  <Column 15>


>  <Column 16>
87 

>  <Column 17>
56 

>  <Column 18>
10 

>  <Column 19>


>  <Tox-Gal>
CTOXGAL

>  <Column 20>


>  <Column 21>
90 

>  <Column 22>
49 

>  <Column 23>
0 

>  <Column 24>


>  <Column 25>


>  <PAMPA>
PAMPA

>  <Column 26>
462

>  <Column 27>


>  <Column 28>


>  <Mouse>
ATMETMOU

>  <Column 29>
327

>  <Column 30>


$$$$
Compound 33
Actelion Java MolfileCreator 2.0

  0  0  0  0  0  0              0 V3000
M  V30 BEGIN CTAB
M  V30 COUNTS 21 23 0 0 0
M  V30 BEGIN ATOM
M  V30 1 Cl 0.0 1.5 0.0 0
M  V30 2 C 0.866 1.0 0.0 0
M  V30 3 C 0.866 0.0 0.0 0
M  V30 4 C 1.732 1.4999 0.0 0
M  V30 5 C 1.732 -0.5 0.0 0
M  V30 6 C 0.0 -0.5 0.0 0 CFG=2
M  V30 7 C 2.598 0.9999 0.0 0
M  V30 8 C 2.598 0.0 0.0 0
M  V30 9 S -0.9135 -0.0932 0.0 0
M  V30 10 C -0.1045 -1.4945 0.0 0
M  V30 11 Cl 3.4641 1.4999 0.0 0
M  V30 12 C -1.5826 -0.8364 0.0 0
M  V30 13 S -1.0826 -1.7024 0.0 0
M  V30 14 C -2.5771 -0.7318 0.0 0
M  V30 15 N -3.1649 -1.5408 0.0 0
M  V30 16 C -2.9839 0.1816 0.0 0
M  V30 17 C -4.1649 -1.5408 0.0 0
M  V30 18 C -2.8559 -2.4919 0.0 0
M  V30 19 N -3.3906 1.0952 0.0 0
M  V30 20 N -4.474 -2.4919 0.0 0
M  V30 21 C -3.6649 -3.0797 0.0 0
M  V30 END ATOM
M  V30 BEGIN BOND
M  V30 1 1 1 2
M  V30 2 2 2 3
M  V30 3 1 2 4
M  V30 4 1 3 5
M  V30 5 1 6 3 CFG=1
M  V30 6 2 4 7
M  V30 7 2 5 8
M  V30 8 1 6 9
M  V30 9 1 6 10
M  V30 10 1 7 11
M  V30 11 1 9 12
M  V30 12 1 10 13
M  V30 13 2 12 14
M  V30 14 1 14 15
M  V30 15 1 14 16
M  V30 16 1 15 17
M  V30 17 1 15 18
M  V30 18 3 16 19
M  V30 19 2 17 20
M  V30 20 2 18 21
M  V30 21 1 7 8
M  V30 22 1 12 13
M  V30 23 1 20 21
M  V30 END BOND
M  V30 BEGIN COLLECTION
M  V30 MDLV30/STEABS ATOMS=(1 6)
M  V30 END COLLECTION
M  V30 END CTAB
M  END
>  <Column 1>
32

>  <Column 2>
PandemicResponseBox - Plate A

>  <Column 3>
H05

>  <Column 4>
MMV1782224

>  <Column 5>
10 mM

>  <Column 6>
ANTIFUNGALS

>  <Column 7>


>  <Column 8>
None

>  <Column 9>
Luliconazole

>  <Column 10>
Clc1ccc([C@H]2CS\C(=C(\C#N)/n3ccnc3)\S2)c(Cl)c1

>  <Column 11>
CHEMBL2105689

>  <Column 12>


>  <Column 13>
354.3

>  <Column 14>
C14 H9 Cl2 N3 S2

>  <Tox-Glu>
ATCTOX

>  <Column 15>


>  <Column 16>
97 

>  <Column 17>
38 

>  <Column 18>
0 

>  <Column 19>


>  <Tox-Gal>
CTOXGAL

>  <Column 20>


>  <Column 21>
94 

>  <Column 22>
1 

>  <Column 23>
0 

>  <Column 24>


>  <Column 25>


>  <PAMPA>
PAMPA

>  <Column 26>
237

>  <Column 27>


>  <Column 28>


>  <Mouse>
ATMETMOU

>  <Column 29>
17

>  <Column 30>


$$$$
Compound 34
Actelion Java MolfileCreator 2.0

  0  0  0  0  0  0              0 V3000
M  V30 BEGIN CTAB
M  V30 COUNTS 11 11 0 0 0
M  V30 BEGIN ATOM
M  V30 1 F 2.598 1.0 0.0 0
M  V30 2 C 2.598 0.0 0.0 0
M  V30 3 C 1.732 -0.5 0.0 0
M  V30 4 C 3.4641 -0.4999 0.0 0
M  V30 5 N 0.866 0.0 0.0 0
M  V30 6 N 1.732 -1.5 0.0 0
M  V30 7 N 3.4641 -1.4999 0.0 0
M  V30 8 C 0.866 1.0 0.0 0
M  V30 9 C 0.0 -0.5 0.0 0
M  V30 10 C 2.598 -1.9999 0.0 0
M  V30 11 O 2.598 -2.9999 0.0 0
M  V30 END ATOM
M  V30 BEGIN BOND
M  V30 1 1 1 2
M  V30 2 2 2 3
M  V30 3 1 2 4
M  V30 4 1 3 5
M  V30 5 1 3 6
M  V30 6 2 4 7
M  V30 7 1 5 8
M  V30 8 1 5 9
M  V30 9 1 6 10
M  V30 10 2 10 11
M  V30 11 1 7 10
M  V30 END BOND
M  V30 END CTAB
M  END
>  <Column 1>
33

>  <Column 2>
PandemicResponseBox - Plate A

>  <Column 3>
A06

>  <Column 4>
MMV1782223

>  <Column 5>
10 mM

>  <Column 6>
ANTIFUNGALS

>  <Column 7>


>  <Column 8>
None

>  <Column 9>


>  <Column 10>
CN(C)C1=C(F)C=NC(=O)N1

>  <Column 11>
NA

>  <Column 12>
Faming Zhuanli Shenqing�(2014),�CN�103766393�

>  <Column 13>
157.1

>  <Column 14>
C6 H8 F N3 O

>  <Tox-Glu>
ATCTOX

>  <Column 15>


>  <Column 16>
98 

>  <Column 17>
95 

>  <Column 18>
92 

>  <Column 19>


>  <Tox-Gal>
CTOXGAL

>  <Column 20>


>  <Column 21>
98 

>  <Column 22>
98 

>  <Column 23>
101 

>  <Column 24>


>  <Column 25>


>  <PAMPA>
PAMPA

>  <Column 26>
undetected

>  <Column 27>
low sensitivity

>  <Column 28>


>  <Mouse>
ATMETMOU

>  <Column 29>


>  <Column 30>
Not determined; Low sensitivity

$$$$
Compound 35
Actelion Java MolfileCreator 2.0

  0  0  0  0  0  0              0 V3000
M  V30 BEGIN CTAB
M  V30 COUNTS 23 25 0 0 0
M  V30 BEGIN ATOM
M  V30 1 Cl 4.3301 0.9999 0.0 0
M  V30 2 C 4.3301 0.0 0.0 0
M  V30 3 C 3.4641 -0.5 0.0 0
M  V30 4 C 5.1961 -0.5 0.0 0
M  V30 5 C 2.598 0.0 0.0 0
M  V30 6 C 3.4641 -1.5 0.0 0
M  V30 7 C 5.1961 -1.5 0.0 0
M  V30 8 O 2.598 1.0 0.0 0
M  V30 9 N 1.732 -0.5 0.0 0
M  V30 10 C 4.3301 -2.0 0.0 0
M  V30 11 Cl 6.0621 -2.0 0.0 0
M  V30 12 C 0.866 0.0 0.0 0
M  V30 13 O 0.866 1.0 0.0 0
M  V30 14 N 0.0 -0.5 0.0 0
M  V30 15 C -0.866 0.0 0.0 0
M  V30 16 C 0.0 -1.4999 0.0 0
M  V30 17 C -1.732 -0.4999 0.0 0
M  V30 18 C -0.866 1.0 0.0 0
M  V30 19 C -0.866 -1.9999 0.0 0
M  V30 20 C -2.598 0.0 0.0 0
M  V30 21 C -1.732 -1.4999 0.0 0
M  V30 22 C -1.732 1.5 0.0 0
M  V30 23 C -2.598 1.0 0.0 0
M  V30 END ATOM
M  V30 BEGIN BOND
M  V30 1 1 1 2
M  V30 2 2 2 3
M  V30 3 1 2 4
M  V30 4 1 3 5
M  V30 5 1 3 6
M  V30 6 2 4 7
M  V30 7 2 5 8
M  V30 8 1 5 9
M  V30 9 2 6 10
M  V30 10 1 7 11
M  V30 11 1 9 12
M  V30 12 2 12 13
M  V30 13 1 12 14
M  V30 14 1 14 15
M  V30 15 1 14 16
M  V30 16 2 15 17
M  V30 17 1 15 18
M  V30 18 1 16 19
M  V30 19 1 17 20
M  V30 20 1 17 21
M  V30 21 2 18 22
M  V30 22 2 20 23
M  V30 23 1 7 10
M  V30 24 1 19 21
M  V30 25 1 22 23
M  V30 END BOND
M  V30 END CTAB
M  END
>  <Column 1>
34

>  <Column 2>
PandemicResponseBox - Plate A

>  <Column 3>
B06

>  <Column 4>
MMV1782218

>  <Column 5>
10 mM

>  <Column 6>
ANTIFUNGALS

>  <Column 7>


>  <Column 8>
None

>  <Column 9>


>  <Column 10>
Clc1ccc(C(=O)NC(=O)N2CCCc3ccccc23)c(Cl)c1

>  <Column 11>
NA

>  <Column 12>
Bioorganic & Medicinal Chemistry Letters�(2016),�26(10),�2544-2546

>  <Column 13>
349.2

>  <Column 14>
C17 H14 Cl2 N2 O2

>  <Tox-Glu>
ATCTOX

>  <Column 15>


>  <Column 16>
99 

>  <Column 17>
96 

>  <Column 18>
78 

>  <Column 19>


>  <Tox-Gal>
CTOXGAL

>  <Column 20>


>  <Column 21>
101 

>  <Column 22>
101 

>  <Column 23>
103 

>  <Column 24>


>  <Column 25>


>  <PAMPA>
PAMPA

>  <Column 26>
229

>  <Column 27>


>  <Column 28>


>  <Mouse>
ATMETMOU

>  <Column 29>
>768

>  <Column 30>


$$$$
Compound 36
Actelion Java MolfileCreator 2.0

  0  0  0  0  0  0              0 V3000
M  V30 BEGIN CTAB
M  V30 COUNTS 24 26 0 0 0
M  V30 BEGIN ATOM
M  V30 1 S 2.598 -0.75 0.0 0
M  V30 2 O 1.848 -2.049 0.0 0
M  V30 3 O 3.348 -2.049 0.0 0
M  V30 4 N 1.299 0.0 0.0 0
M  V30 5 C 3.8971 0.0 0.0 0
M  V30 6 C 0.0 -0.75 0.0 0
M  V30 7 C 5.1961 -0.75 0.0 0
M  V30 8 C 3.8971 1.5 0.0 0
M  V30 9 N -1.3703 -0.1398 0.0 0
M  V30 10 C -0.1567 -2.2417 0.0 0
M  V30 11 C 6.4952 0.0 0.0 0
M  V30 12 C 5.1961 2.25 0.0 0
M  V30 13 O -2.374 -1.2546 0.0 0
M  V30 14 C -1.624 -2.5536 0.0 0
M  V30 15 C 6.4952 1.5 0.0 0
M  V30 16 C -2.2341 -3.9239 0.0 0
M  V30 17 C 7.7942 2.25 0.0 0
M  V30 18 C 9.0932 1.5 0.0 0
M  V30 19 C 7.7942 3.75 0.0 0
M  V30 20 F 9.0932 0.0 0.0 0
M  V30 21 C 10.3923 2.25 0.0 0
M  V30 22 C 9.0932 4.5 0.0 0
M  V30 23 C 10.3923 3.75 0.0 0
M  V30 24 F 11.6913 4.5 0.0 0
M  V30 END ATOM
M  V30 BEGIN BOND
M  V30 1 2 1 2
M  V30 2 2 1 3
M  V30 3 1 1 4
M  V30 4 1 1 5
M  V30 5 1 4 6
M  V30 6 2 5 7
M  V30 7 1 5 8
M  V30 8 2 6 9
M  V30 9 1 6 10
M  V30 10 1 7 11
M  V30 11 2 8 12
M  V30 12 1 9 13
M  V30 13 2 10 14
M  V30 14 2 11 15
M  V30 15 1 14 16
M  V30 16 1 15 17
M  V30 17 2 17 18
M  V30 18 1 17 19
M  V30 19 1 18 20
M  V30 20 1 18 21
M  V30 21 2 19 22
M  V30 22 2 21 23
M  V30 23 1 23 24
M  V30 24 1 12 15
M  V30 25 1 13 14
M  V30 26 1 22 23
M  V30 END BOND
M  V30 END CTAB
M  END
>  <Column 1>
35

>  <Column 2>
PandemicResponseBox - Plate A

>  <Column 3>
C06

>  <Column 4>
MMV1782217

>  <Column 5>
10 mM

>  <Column 6>
ANTIFUNGALS

>  <Column 7>


>  <Column 8>
None

>  <Column 9>


>  <Column 10>
Cc1onc(NS(=O)(=O)c2ccc(cc2)c3ccc(F)cc3F)c1

>  <Column 11>
NA

>  <Column 12>
WO�2004021997�

>  <Column 13>
350.3

>  <Column 14>
C16 H12 F2 N2 O3 S

>  <Tox-Glu>
ATCTOX

>  <Column 15>


>  <Column 16>
95 

>  <Column 17>
96 

>  <Column 18>
86 

>  <Column 19>


>  <Tox-Gal>
CTOXGAL

>  <Column 20>


>  <Column 21>
100 

>  <Column 22>
99 

>  <Column 23>
100 

>  <Column 24>


>  <Column 25>


>  <PAMPA>
PAMPA

>  <Column 26>
64

>  <Column 27>


>  <Column 28>


>  <Mouse>
ATMETMOU

>  <Column 29>
15

>  <Column 30>


$$$$
Compound 37
Actelion Java MolfileCreator 2.0

  0  0  0  0  0  0              0 V3000
M  V30 BEGIN CTAB
M  V30 COUNTS 20 21 0 0 0
M  V30 BEGIN ATOM
M  V30 1 S 9.0932 -3.0 0.0 0
M  V30 2 O 10.5932 -3.0 0.0 0
M  V30 3 O 9.8432 -1.7009 0.0 0
M  V30 4 N 9.0932 -4.5 0.0 0
M  V30 5 C 7.7942 -2.25 0.0 0
M  V30 6 C 10.3923 -5.25 0.0 0
M  V30 7 C 7.7942 -0.75 0.0 0
M  V30 8 C 6.4952 -3.0 0.0 0
M  V30 9 N 10.5491 -6.7417 0.0 0
M  V30 10 C 11.7626 -4.6399 0.0 0
M  V30 11 C 6.4952 0.0 0.0 0
M  V30 12 C 5.1961 -2.25 0.0 0
M  V30 13 O 12.0163 -7.0536 0.0 0
M  V30 14 C 12.7663 -5.7546 0.0 0
M  V30 15 C 5.1961 -0.75 0.0 0
M  V30 16 C 14.2581 -5.5978 0.0 0
M  V30 17 N 3.8971 0.0 0.0 0
M  V30 18 C 2.598 -0.75 0.0 0
M  V30 19 C 1.299 0.0 0.0 0
M  V30 20 C 0.0 -0.75 0.0 0
M  V30 END ATOM
M  V30 BEGIN BOND
M  V30 1 2 1 2
M  V30 2 2 1 3
M  V30 3 1 1 4
M  V30 4 1 1 5
M  V30 5 1 4 6
M  V30 6 2 5 7
M  V30 7 1 5 8
M  V30 8 2 6 9
M  V30 9 1 6 10
M  V30 10 1 7 11
M  V30 11 2 8 12
M  V30 12 1 9 13
M  V30 13 2 10 14
M  V30 14 2 11 15
M  V30 15 1 14 16
M  V30 16 1 15 17
M  V30 17 1 17 18
M  V30 18 1 18 19
M  V30 19 1 19 20
M  V30 20 1 12 15
M  V30 21 1 13 14
M  V30 END BOND
M  V30 END CTAB
M  END
>  <Column 1>
36

>  <Column 2>
PandemicResponseBox - Plate A

>  <Column 3>
D06

>  <Column 4>
MMV1782216

>  <Column 5>
10 mM

>  <Column 6>
ANTIFUNGALS

>  <Column 7>


>  <Column 8>
None

>  <Column 9>


>  <Column 10>
CCCNc1ccc(cc1)S(=O)(=O)Nc2cc(C)on2

>  <Column 11>
NA

>  <Column 12>
WO�2004021997�

>  <Column 13>
295.4

>  <Column 14>
C13 H17 N3 O3 S

>  <Tox-Glu>
ATCTOX

>  <Column 15>


>  <Column 16>
96 

>  <Column 17>
97 

>  <Column 18>
91 

>  <Column 19>


>  <Tox-Gal>
CTOXGAL

>  <Column 20>


>  <Column 21>
102 

>  <Column 22>
99 

>  <Column 23>
104 

>  <Column 24>


>  <Column 25>


>  <PAMPA>
PAMPA

>  <Column 26>
65

>  <Column 27>


>  <Column 28>


>  <Mouse>
ATMETMOU

>  <Column 29>
62

>  <Column 30>


$$$$
Compound 38
Actelion Java MolfileCreator 2.0

  0  0  0  0  0  0              0 V3000
M  V30 BEGIN CTAB
M  V30 COUNTS 23 24 0 0 0
M  V30 BEGIN ATOM
M  V30 1 F 1.232 0.6339 0.0 0
M  V30 2 C 1.732 1.4999 0.0 0
M  V30 3 F 0.866 1.9999 0.0 0
M  V30 4 F 2.232 2.366 0.0 0
M  V30 5 C 2.598 1.0 0.0 0
M  V30 6 C 2.598 0.0 0.0 0
M  V30 7 C 3.4641 1.4999 0.0 0
M  V30 8 C 1.732 -0.5 0.0 0
M  V30 9 C 3.4641 -0.5 0.0 0
M  V30 10 C 4.3301 1.0 0.0 0
M  V30 11 O 1.732 -1.5 0.0 0
M  V30 12 N 0.866 0.0 0.0 0
M  V30 13 C 4.3301 0.0 0.0 0
M  V30 14 C 0.0 -0.5 0.0 0
M  V30 15 C -0.866 0.0 0.0 0
M  V30 16 C 0.0 -1.4999 0.0 0
M  V30 17 C -1.732 -0.4999 0.0 0
M  V30 18 C -0.866 -1.9999 0.0 0
M  V30 19 O -2.598 0.0 0.0 0
M  V30 20 C -1.732 -1.4999 0.0 0
M  V30 21 C -2.598 1.0 0.0 0
M  V30 22 C -1.732 1.5 0.0 0
M  V30 23 C -3.4641 1.5 0.0 0
M  V30 END ATOM
M  V30 BEGIN BOND
M  V30 1 1 1 2
M  V30 2 1 2 3
M  V30 3 1 2 4
M  V30 4 1 2 5
M  V30 5 2 5 6
M  V30 6 1 5 7
M  V30 7 1 6 8
M  V30 8 1 6 9
M  V30 9 2 7 10
M  V30 10 2 8 11
M  V30 11 1 8 12
M  V30 12 2 9 13
M  V30 13 1 12 14
M  V30 14 2 14 15
M  V30 15 1 14 16
M  V30 16 1 15 17
M  V30 17 2 16 18
M  V30 18 1 17 19
M  V30 19 2 17 20
M  V30 20 1 19 21
M  V30 21 1 21 22
M  V30 22 1 21 23
M  V30 23 1 10 13
M  V30 24 1 18 20
M  V30 END BOND
M  V30 END CTAB
M  END
>  <Column 1>
37

>  <Column 2>
PandemicResponseBox - Plate A

>  <Column 3>
E06

>  <Column 4>
MMV1009286

>  <Column 5>
10 mM

>  <Column 6>
ANTIFUNGALS

>  <Column 7>


>  <Column 8>
None

>  <Column 9>
Flutolanil

>  <Column 10>
CC(C)Oc1cccc(NC(=O)c2ccccc2C(F)(F)F)c1

>  <Column 11>
CHEMBL487185

>  <Column 12>


>  <Column 13>
323.3

>  <Column 14>
C17H16F3NO2

>  <Tox-Glu>
ATCTOX

>  <Column 15>


>  <Column 16>
100 

>  <Column 17>
99 

>  <Column 18>
81 

>  <Column 19>


>  <Tox-Gal>
CTOXGAL

>  <Column 20>


>  <Column 21>
106 

>  <Column 22>
100 

>  <Column 23>
80 

>  <Column 24>


>  <Column 25>


>  <PAMPA>
PAMPA

>  <Column 26>
114

>  <Column 27>


>  <Column 28>


>  <Mouse>
ATMETMOU

>  <Column 29>
>768

>  <Column 30>


$$$$
Compound 39
Actelion Java MolfileCreator 2.0

  0  0  0  0  0  0              0 V3000
M  V30 BEGIN CTAB
M  V30 COUNTS 17 18 0 0 0
M  V30 BEGIN ATOM
M  V30 1 F 1.732 1.4999 0.0 0
M  V30 2 C 2.598 1.0 0.0 0
M  V30 3 C 2.598 0.0 0.0 0
M  V30 4 C 3.4641 1.4999 0.0 0
M  V30 5 N 3.4641 -0.5 0.0 0
M  V30 6 N 1.732 -0.5 0.0 0
M  V30 7 N 4.3301 1.0 0.0 0
M  V30 8 C 4.3301 0.0 0.0 0
M  V30 9 C 0.866 0.0 0.0 0
M  V30 10 O 5.1961 -0.5 0.0 0
M  V30 11 O 0.866 1.0 0.0 0
M  V30 12 C 0.0 -0.5 0.0 0
M  V30 13 C -0.866 0.0 0.0 0
M  V30 14 C 0.0 -1.4999 0.0 0
M  V30 15 C -1.732 -0.4999 0.0 0
M  V30 16 C -0.866 -1.9999 0.0 0
M  V30 17 C -1.732 -1.4999 0.0 0
M  V30 END ATOM
M  V30 BEGIN BOND
M  V30 1 1 1 2
M  V30 2 2 2 3
M  V30 3 1 2 4
M  V30 4 1 3 5
M  V30 5 1 3 6
M  V30 6 2 4 7
M  V30 7 1 5 8
M  V30 8 1 6 9
M  V30 9 2 8 10
M  V30 10 2 9 11
M  V30 11 1 9 12
M  V30 12 2 12 13
M  V30 13 1 12 14
M  V30 14 1 13 15
M  V30 15 2 14 16
M  V30 16 2 15 17
M  V30 17 1 7 8
M  V30 18 1 16 17
M  V30 END BOND
M  V30 END CTAB
M  END
>  <Column 1>
38

>  <Column 2>
PandemicResponseBox - Plate A

>  <Column 3>
F06

>  <Column 4>
MMV1782225

>  <Column 5>
10 mM

>  <Column 6>
ANTIFUNGALS

>  <Column 7>


>  <Column 8>
None

>  <Column 9>
NSC 527094

>  <Column 10>
FC1=C(NC(=O)c2ccccc2)NC(=O)N=C1

>  <Column 11>
NA

>  <Column 12>
US�20100029482

>  <Column 13>
233.2

>  <Column 14>
C11 H8 F N3 O2

>  <Tox-Glu>
ATCTOX

>  <Column 15>


>  <Column 16>
100 

>  <Column 17>
100 

>  <Column 18>
96 

>  <Column 19>


>  <Tox-Gal>
CTOXGAL

>  <Column 20>


>  <Column 21>
105 

>  <Column 22>
106 

>  <Column 23>
111 

>  <Column 24>


>  <Column 25>


>  <PAMPA>
PAMPA

>  <Column 26>
55

>  <Column 27>


>  <Column 28>


>  <Mouse>
ATMETMOU

>  <Column 29>
375

>  <Column 30>


$$$$
Compound 40
Actelion Java MolfileCreator 2.0

  0  0  0  0  0  0              0 V3000
M  V30 BEGIN CTAB
M  V30 COUNTS 37 41 0 0 0
M  V30 BEGIN ATOM
M  V30 1 F 16.8874 -7.5 0.0 0
M  V30 2 C 15.5884 -6.75 0.0 0
M  V30 3 C 15.5884 -5.25 0.0 0
M  V30 4 C 14.2894 -7.5 0.0 0
M  V30 5 N 14.2894 -4.5 0.0 0
M  V30 6 N 12.9903 -6.75 0.0 0
M  V30 7 C 12.9903 -5.25 0.0 0
M  V30 8 N 11.6913 -4.5 0.0 0
M  V30 9 C 11.6913 -3.0 0.0 0
M  V30 10 C 10.3923 -5.25 0.0 0
M  V30 11 C 10.3923 -2.25 0.0 0
M  V30 12 C 9.0932 -4.5 0.0 0
M  V30 13 N 9.0932 -3.0 0.0 0
M  V30 14 C 7.7942 -2.25 0.0 0
M  V30 15 C 7.7942 -0.75 0.0 0
M  V30 16 C 6.4951 -2.9999 0.0 0
M  V30 17 C 6.4951 0.0 0.0 0
M  V30 18 C 5.1961 -2.25 0.0 0
M  V30 19 C 5.1961 -0.75 0.0 0
M  V30 20 N 3.8971 0.0 0.0 0
M  V30 21 C 2.598 -0.75 0.0 0
M  V30 22 O 2.598 -2.25 0.0 0
M  V30 23 C 1.299 0.0 0.0 0
M  V30 24 O 1.299 1.5 0.0 0
M  V30 25 C 0.0 -0.75 0.0 0
M  V30 26 N -0.1567 -2.2417 0.0 0
M  V30 27 C -1.3703 -0.1398 0.0 0
M  V30 28 C -1.624 -2.5536 0.0 0
M  V30 29 C 0.9579 -3.2454 0.0 0
M  V30 30 C -1.6821 1.3273 0.0 0
M  V30 31 C -2.374 -1.2546 0.0 0
M  V30 32 C -2.2341 -3.9239 0.0 0
M  V30 33 C -3.1087 1.7908 0.0 0
M  V30 34 C -0.5674 2.331 0.0 0
M  V30 35 C -3.4206 3.258 0.0 0
M  V30 36 C -0.8793 3.7982 0.0 0
M  V30 37 C -2.3059 4.2617 0.0 0
M  V30 END ATOM
M  V30 BEGIN BOND
M  V30 1 1 1 2
M  V30 2 2 2 3
M  V30 3 1 2 4
M  V30 4 1 3 5
M  V30 5 2 4 6
M  V30 6 2 5 7
M  V30 7 1 7 8
M  V30 8 1 8 9
M  V30 9 1 8 10
M  V30 10 1 9 11
M  V30 11 1 10 12
M  V30 12 1 11 13
M  V30 13 1 13 14
M  V30 14 2 14 15
M  V30 15 1 14 16
M  V30 16 1 15 17
M  V30 17 2 16 18
M  V30 18 2 17 19
M  V30 19 1 19 20
M  V30 20 1 20 21
M  V30 21 2 21 22
M  V30 22 1 21 23
M  V30 23 2 23 24
M  V30 24 1 23 25
M  V30 25 1 25 26
M  V30 26 2 25 27
M  V30 27 1 26 28
M  V30 28 1 26 29
M  V30 29 1 27 30
M  V30 30 1 27 31
M  V30 31 1 28 32
M  V30 32 2 30 33
M  V30 33 1 30 34
M  V30 34 1 33 35
M  V30 35 2 34 36
M  V30 36 2 35 37
M  V30 37 1 6 7
M  V30 38 1 12 13
M  V30 39 1 18 19
M  V30 40 2 28 31
M  V30 41 1 36 37
M  V30 END BOND
M  V30 END CTAB
M  END
>  <Column 1>
39

>  <Column 2>
PandemicResponseBox - Plate A

>  <Column 3>
G06

>  <Column 4>
MMV1782354

>  <Column 5>
10 mM

>  <Column 6>
ANTIFUNGALS

>  <Column 7>


>  <Column 8>
None

>  <Column 9>
Olorofim

>  <Column 10>
Cc1cc(c2ccccc2)c(C(=O)C(=O)Nc3ccc(cc3)N4CCN(CC4)c5ncc(F)cn5)n1C

>  <Column 11>
NA

>  <Column 12>
Proceedings of the National Academy of Sciences of the United States of America�(2016),�113(45),�12809-12814.

>  <Column 13>
498.6

>  <Column 14>
C28 H27 F N6 O2

>  <Tox-Glu>
ATCTOX

>  <Column 15>


>  <Column 16>
84 

>  <Column 17>
77 

>  <Column 18>
69 

>  <Column 19>


>  <Tox-Gal>
CTOXGAL

>  <Column 20>


>  <Column 21>
0 

>  <Column 22>
0 

>  <Column 23>
1 

>  <Column 24>


>  <Column 25>


>  <PAMPA>
PAMPA

>  <Column 26>
343

>  <Column 27>


>  <Column 28>


>  <Mouse>
ATMETMOU

>  <Column 29>
40

>  <Column 30>


$$$$
Compound 41
Actelion Java MolfileCreator 2.0

  0  0  0  0  0  0              0 V3000
M  V30 BEGIN CTAB
M  V30 COUNTS 23 24 0 0 0
M  V30 BEGIN ATOM
M  V30 1 Cl 4.3301 0.9999 0.0 0
M  V30 2 C 4.3301 0.0 0.0 0
M  V30 3 C 3.4641 -0.5 0.0 0
M  V30 4 C 5.1961 -0.5 0.0 0
M  V30 5 N 3.4641 -1.5 0.0 0
M  V30 6 C 2.598 0.0 0.0 0
M  V30 7 C 5.1961 -1.5 0.0 0
M  V30 8 C 4.3301 -2.0 0.0 0
M  V30 9 N 1.732 -0.5 0.0 0
M  V30 10 C 6.0621 -2.0 0.0 0
M  V30 11 C 0.866 0.0 0.0 0
M  V30 12 F 6.5621 -1.1339 0.0 0
M  V30 13 F 6.9282 -2.5 0.0 0
M  V30 14 F 5.5621 -2.866 0.0 0
M  V30 15 O 0.866 1.0 0.0 0
M  V30 16 C 0.0 -0.5 0.0 0
M  V30 17 C -0.866 0.0 0.0 0
M  V30 18 C 0.0 -1.4999 0.0 0
M  V30 19 Cl -0.866 1.0 0.0 0
M  V30 20 C -1.732 -0.4999 0.0 0
M  V30 21 Cl 0.866 -2.0 0.0 0
M  V30 22 C -0.866 -1.9999 0.0 0
M  V30 23 C -1.732 -1.4999 0.0 0
M  V30 END ATOM
M  V30 BEGIN BOND
M  V30 1 1 1 2
M  V30 2 2 2 3
M  V30 3 1 2 4
M  V30 4 1 3 5
M  V30 5 1 3 6
M  V30 6 2 4 7
M  V30 7 2 5 8
M  V30 8 1 6 9
M  V30 9 1 7 10
M  V30 10 1 9 11
M  V30 11 1 10 12
M  V30 12 1 10 13
M  V30 13 1 10 14
M  V30 14 2 11 15
M  V30 15 1 11 16
M  V30 16 2 16 17
M  V30 17 1 16 18
M  V30 18 1 17 19
M  V30 19 1 17 20
M  V30 20 1 18 21
M  V30 21 2 18 22
M  V30 22 2 20 23
M  V30 23 1 7 8
M  V30 24 1 22 23
M  V30 END BOND
M  V30 END CTAB
M  END
>  <Column 1>
40

>  <Column 2>
PandemicResponseBox - Plate A

>  <Column 3>
H06

>  <Column 4>
MMV689401

>  <Column 5>
10 mM

>  <Column 6>
ANTIFUNGALS

>  <Column 7>


>  <Column 8>
None

>  <Column 9>
Fluopicolide

>  <Column 10>
FC(F)(F)c1cnc(CNC(=O)c2c(Cl)cccc2Cl)c(Cl)c1

>  <Column 11>
CHEMBL3560526

>  <Column 12>


>  <Column 13>
383.6

>  <Column 14>
C14 H8 Cl3 F3 N2 O

>  <Tox-Glu>
ATCTOX

>  <Column 15>


>  <Column 16>
80 

>  <Column 17>
66 

>  <Column 18>
57 

>  <Column 19>


>  <Tox-Gal>
CTOXGAL

>  <Column 20>


>  <Column 21>
84 

>  <Column 22>
74 

>  <Column 23>
70 

>  <Column 24>


>  <Column 25>


>  <PAMPA>
PAMPA

>  <Column 26>
173

>  <Column 27>


>  <Column 28>


>  <Mouse>
ATMETMOU

>  <Column 29>


>  <Column 30>
Not determined; Large variations

$$$$
Compound 42
Actelion Java MolfileCreator 2.0

  0  0  0  0  0  0              0 V3000
M  V30 BEGIN CTAB
M  V30 COUNTS 22 24 0 0 0
M  V30 BEGIN ATOM
M  V30 1 Cl 6.0621 0.0 0.0 0
M  V30 2 C 5.1961 -0.5 0.0 0
M  V30 3 C 4.3301 0.0 0.0 0
M  V30 4 C 5.1961 -1.4999 0.0 0
M  V30 5 C 3.4641 -0.5 0.0 0
M  V30 6 C 4.3301 -1.9999 0.0 0
M  V30 7 C 2.598 0.0 0.0 0
M  V30 8 C 3.4641 -1.4999 0.0 0
M  V30 9 O 2.598 1.0 0.0 0
M  V30 10 N 1.732 -0.5 0.0 0
M  V30 11 C 0.866 0.0 0.0 0
M  V30 12 O 0.866 1.0 0.0 0
M  V30 13 N 0.0 -0.5 0.0 0
M  V30 14 C -0.866 0.0 0.0 0
M  V30 15 C 0.0 -1.4999 0.0 0
M  V30 16 C -1.732 -0.4999 0.0 0
M  V30 17 C -0.866 1.0 0.0 0
M  V30 18 C -0.866 -1.9999 0.0 0
M  V30 19 C -2.598 0.0 0.0 0
M  V30 20 C -1.732 -1.4999 0.0 0
M  V30 21 C -1.732 1.5 0.0 0
M  V30 22 C -2.598 1.0 0.0 0
M  V30 END ATOM
M  V30 BEGIN BOND
M  V30 1 1 1 2
M  V30 2 2 2 3
M  V30 3 1 2 4
M  V30 4 1 3 5
M  V30 5 2 4 6
M  V30 6 1 5 7
M  V30 7 2 5 8
M  V30 8 2 7 9
M  V30 9 1 7 10
M  V30 10 1 10 11
M  V30 11 2 11 12
M  V30 12 1 11 13
M  V30 13 1 13 14
M  V30 14 1 13 15
M  V30 15 2 14 16
M  V30 16 1 14 17
M  V30 17 1 15 18
M  V30 18 1 16 19
M  V30 19 1 16 20
M  V30 20 2 17 21
M  V30 21 2 19 22
M  V30 22 1 6 8
M  V30 23 1 18 20
M  V30 24 1 21 22
M  V30 END BOND
M  V30 END CTAB
M  END
>  <Column 1>
41

>  <Column 2>
PandemicResponseBox - Plate A

>  <Column 3>
A07

>  <Column 4>
MMV1782351

>  <Column 5>
10 mM

>  <Column 6>
ANTIFUNGALS

>  <Column 7>


>  <Column 8>
None

>  <Column 9>


>  <Column 10>
Clc1cccc(c1)C(=O)NC(=O)N2CCCc3ccccc23

>  <Column 11>
NA

>  <Column 12>
Bioorganic & Medicinal Chemistry Letters�(2016),�26(10),�2544-2546

>  <Column 13>
314.8

>  <Column 14>
C17 H15 Cl N2 O2

>  <Tox-Glu>
ATCTOX

>  <Column 15>


>  <Column 16>
98 

>  <Column 17>
92 

>  <Column 18>
76 

>  <Column 19>


>  <Tox-Gal>
CTOXGAL

>  <Column 20>


>  <Column 21>
100 

>  <Column 22>
98 

>  <Column 23>
67 

>  <Column 24>


>  <Column 25>


>  <PAMPA>
PAMPA

>  <Column 26>
undetected

>  <Column 27>
low sensitivity

>  <Column 28>


>  <Mouse>
ATMETMOU

>  <Column 29>


>  <Column 30>
Not determined; Low sensitivity

$$$$
Compound 43
Actelion Java MolfileCreator 2.0

  0  0  0  0  0  0              0 V3000
M  V30 BEGIN CTAB
M  V30 COUNTS 15 16 0 0 0
M  V30 BEGIN ATOM
M  V30 1 O 2.598 -2.25 0.0 0
M  V30 2 C 2.598 -0.75 0.0 0
M  V30 3 O 3.8971 0.0 0.0 0
M  V30 4 N 1.299 0.0 0.0 0
M  V30 5 C 5.1961 -0.75 0.0 0
M  V30 6 C 0.0 -0.75 0.0 0
M  V30 7 N -1.3703 -0.1398 0.0 0
M  V30 8 N -0.1567 -2.2417 0.0 0
M  V30 9 C -2.374 -1.2546 0.0 0
M  V30 10 C -1.624 -2.5536 0.0 0
M  V30 11 C -3.874 -1.2546 0.0 0
M  V30 12 C -2.374 -3.8526 0.0 0
M  V30 13 C -4.624 -2.5536 0.0 0
M  V30 14 C -4.624 0.0444 0.0 0
M  V30 15 C -3.874 -3.8526 0.0 0
M  V30 END ATOM
M  V30 BEGIN BOND
M  V30 1 2 1 2
M  V30 2 1 2 3
M  V30 3 1 2 4
M  V30 4 1 3 5
M  V30 5 1 4 6
M  V30 6 2 6 7
M  V30 7 1 6 8
M  V30 8 1 7 9
M  V30 9 1 8 10
M  V30 10 1 9 11
M  V30 11 1 10 12
M  V30 12 2 11 13
M  V30 13 1 11 14
M  V30 14 2 12 15
M  V30 15 2 9 10
M  V30 16 1 13 15
M  V30 END BOND
M  V30 END CTAB
M  END
>  <Column 1>
42

>  <Column 2>
PandemicResponseBox - Plate A

>  <Column 3>
B07

>  <Column 4>
MMV1782387

>  <Column 5>
10 mM

>  <Column 6>
ANTIFUNGALS

>  <Column 7>


>  <Column 8>
None

>  <Column 9>


>  <Column 10>
COC(=O)Nc1nc2c(C)cccc2[nH]1

>  <Column 11>
NA

>  <Column 12>
JP�54059338

>  <Column 13>
205.2

>  <Column 14>
C10H11N3O2

>  <Tox-Glu>
ATCTOX

>  <Column 15>


>  <Column 16>
98 

>  <Column 17>
96 

>  <Column 18>
91 

>  <Column 19>


>  <Tox-Gal>
CTOXGAL

>  <Column 20>


>  <Column 21>
102 

>  <Column 22>
103 

>  <Column 23>
99 

>  <Column 24>


>  <Column 25>


>  <PAMPA>
PAMPA

>  <Column 26>
121

>  <Column 27>


>  <Column 28>


>  <Mouse>
ATMETMOU

>  <Column 29>
259

>  <Column 30>


$$$$
Compound 44
Actelion Java MolfileCreator 2.0

  0  0  0  0  0  0              0 V3000
M  V30 BEGIN CTAB
M  V30 COUNTS 10 10 0 0 0
M  V30 BEGIN ATOM
M  V30 1 O 1.299 0.0 0.0 0
M  V30 2 C 0.0 -0.75 0.0 0
M  V30 3 N -1.299 0.0 0.0 0
M  V30 4 C 0.0 -2.25 0.0 0
M  V30 5 O -1.299 1.5 0.0 0
M  V30 6 C -2.598 -0.7499 0.0 0
M  V30 7 C -1.299 -2.9999 0.0 0
M  V30 8 C -2.598 -2.2499 0.0 0
M  V30 9 C -3.8971 0.0 0.0 0
M  V30 10 C -1.299 -4.4999 0.0 0
M  V30 END ATOM
M  V30 BEGIN BOND
M  V30 1 2 1 2
M  V30 2 1 2 3
M  V30 3 1 2 4
M  V30 4 1 3 5
M  V30 5 1 3 6
M  V30 6 2 4 7
M  V30 7 2 6 8
M  V30 8 1 6 9
M  V30 9 1 7 10
M  V30 10 1 7 8
M  V30 END BOND
M  V30 END CTAB
M  END
>  <Column 1>
43

>  <Column 2>
PandemicResponseBox - Plate A

>  <Column 3>
C07

>  <Column 4>
MMV1782389

>  <Column 5>
10 mM

>  <Column 6>
ANTIFUNGALS

>  <Column 7>


>  <Column 8>
None

>  <Column 9>
Metipirox

>  <Column 10>
CC1=CC(=O)N(O)C(=C1)C

>  <Column 11>
CHEMBL2104878

>  <Column 12>
JP�60215625, Journal of Medicinal Chemistry (1974), 17(7), 753-6.

>  <Column 13>
139.1

>  <Column 14>
C7H9NO2

>  <Tox-Glu>
ATCTOX

>  <Column 15>


>  <Column 16>
93 

>  <Column 17>
95 

>  <Column 18>
90 

>  <Column 19>


>  <Tox-Gal>
CTOXGAL

>  <Column 20>


>  <Column 21>
93 

>  <Column 22>
98 

>  <Column 23>
96 

>  <Column 24>


>  <Column 25>


>  <PAMPA>
PAMPA

>  <Column 26>
undetected

>  <Column 27>
low sensitivity

>  <Column 28>


>  <Mouse>
ATMETMOU

>  <Column 29>


>  <Column 30>
Not determined; Low sensitivity

$$$$
Compound 45
Actelion Java MolfileCreator 2.0

  0  0  0  0  0  0              0 V3000
M  V30 BEGIN CTAB
M  V30 COUNTS 10 10 0 0 0
M  V30 BEGIN ATOM
M  V30 1 F 2.598 1.0 0.0 0
M  V30 2 C 2.598 0.0 0.0 0
M  V30 3 C 1.732 -0.5 0.0 0
M  V30 4 C 3.4641 -0.4999 0.0 0
M  V30 5 N 1.732 -1.5 0.0 0
M  V30 6 N 0.866 0.0 0.0 0
M  V30 7 N 3.4641 -1.4999 0.0 0
M  V30 8 C 2.598 -1.9999 0.0 0
M  V30 9 C 0.0 -0.5 0.0 0
M  V30 10 O 2.598 -2.9999 0.0 0
M  V30 END ATOM
M  V30 BEGIN BOND
M  V30 1 1 1 2
M  V30 2 1 2 3
M  V30 3 2 2 4
M  V30 4 2 3 5
M  V30 5 1 3 6
M  V30 6 1 4 7
M  V30 7 1 5 8
M  V30 8 1 6 9
M  V30 9 2 8 10
M  V30 10 1 7 8
M  V30 END BOND
M  V30 END CTAB
M  END
>  <Column 1>
44

>  <Column 2>
PandemicResponseBox - Plate A

>  <Column 3>
D07

>  <Column 4>
MMV1782388

>  <Column 5>
10 mM

>  <Column 6>
ANTIFUNGALS

>  <Column 7>


>  <Column 8>
None

>  <Column 9>
NSC 527092

>  <Column 10>
CNC1=NC(=O)NC=C1F

>  <Column 11>
NA

>  <Column 12>
US�20100029482

>  <Column 13>
143.1

>  <Column 14>
C5H6FN3O

>  <Tox-Glu>
ATCTOX

>  <Column 15>


>  <Column 16>
101 

>  <Column 17>
100 

>  <Column 18>
96 

>  <Column 19>


>  <Tox-Gal>
CTOXGAL

>  <Column 20>


>  <Column 21>
99 

>  <Column 22>
101 

>  <Column 23>
100 

>  <Column 24>


>  <Column 25>


>  <PAMPA>
PAMPA

>  <Column 26>
undetected

>  <Column 27>
low sensitivity

>  <Column 28>


>  <Mouse>
ATMETMOU

>  <Column 29>


>  <Column 30>
Not determined; Low sensitivity

$$$$
Compound 46
Actelion Java MolfileCreator 2.0

  0  0  0  0  0  0              0 V3000
M  V30 BEGIN CTAB
M  V30 COUNTS 37 41 0 0 0
M  V30 BEGIN ATOM
M  V30 1 O 5.1492 3.1676 0.0 0
M  V30 2 C 6.2487 4.1879 0.0 0
M  V30 3 C 7.6821 3.7458 0.0 0
M  V30 4 C 5.9149 5.6503 0.0 0
M  V30 5 C 8.7817 4.766 0.0 0
M  V30 6 C 7.7942 2.25 0.0 0 CFG=1
M  V30 7 C 7.0145 6.6705 0.0 0
M  V30 8 N 10.2649 4.5425 0.0 0
M  V30 9 C 8.4479 6.2284 0.0 0
M  V30 10 N 9.0335 1.405 0.0 0
M  V30 11 C 6.4951 1.5 0.0 0
M  V30 12 C 7.4567 8.1039 0.0 0
M  V30 13 C 5.9943 7.7701 0.0 0
M  V30 14 C 11.0149 3.2434 0.0 0
M  V30 15 C 10.4669 1.8471 0.0 0
M  V30 16 C 8.81 -0.0782 0.0 0
M  V30 17 C 5.1961 2.25 0.0 0
M  V30 18 C 6.4951 0.0 0.0 0
M  V30 19 C 12.4982 3.467 0.0 0
M  V30 20 C 11.4021 0.6744 0.0 0
M  V30 21 O 7.4137 -0.6262 0.0 0
M  V30 22 C 9.9827 -1.0134 0.0 0
M  V30 23 C 3.8971 1.5 0.0 0
M  V30 24 C 5.1961 -0.75 0.0 0
M  V30 25 C 13.4334 2.2942 0.0 0
M  V30 26 C 12.8854 0.8979 0.0 0
M  V30 27 O 2.598 2.25 0.0 0
M  V30 28 C 3.8971 0.0 0.0 0
M  V30 29 C 1.299 1.5 0.0 0
M  V30 30 O 2.598 -0.75 0.0 0
M  V30 31 C 1.299 0.0 0.0 0
M  V30 32 C 0.0 -0.75 0.0 0
M  V30 33 C -1.299 0.0 0.0 0
M  V30 34 C 0.0 -2.25 0.0 0
M  V30 35 C -2.598 -0.75 0.0 0
M  V30 36 C -1.299 -3.0 0.0 0
M  V30 37 C -2.598 -2.25 0.0 0
M  V30 END ATOM
M  V30 BEGIN BOND
M  V30 1 2 1 2
M  V30 2 1 2 3
M  V30 3 1 2 4
M  V30 4 2 3 5
M  V30 5 1 6 3
M  V30 6 1 4 7
M  V30 7 1 5 8
M  V30 8 1 5 9
M  V30 9 1 6 10
M  V30 10 1 6 11 CFG=1
M  V30 11 1 7 12
M  V30 12 1 7 13
M  V30 13 1 8 14
M  V30 14 1 10 15
M  V30 15 1 10 16
M  V30 16 2 11 17
M  V30 17 1 11 18
M  V30 18 1 14 19
M  V30 19 1 15 20
M  V30 20 2 16 21
M  V30 21 1 16 22
M  V30 22 1 17 23
M  V30 23 2 18 24
M  V30 24 2 19 25
M  V30 25 2 20 26
M  V30 26 1 23 27
M  V30 27 2 23 28
M  V30 28 1 27 29
M  V30 29 1 28 30
M  V30 30 1 30 31
M  V30 31 1 31 32
M  V30 32 2 32 33
M  V30 33 1 32 34
M  V30 34 1 33 35
M  V30 35 2 34 36
M  V30 36 2 35 37
M  V30 37 1 7 9
M  V30 38 2 14 15
M  V30 39 1 24 28
M  V30 40 1 25 26
M  V30 41 1 36 37
M  V30 END BOND
M  V30 BEGIN COLLECTION
M  V30 MDLV30/STERAC1 ATOMS=(1 6)
M  V30 END COLLECTION
M  V30 END CTAB
M  END
>  <Column 1>
45

>  <Column 2>
PandemicResponseBox - Plate A

>  <Column 3>
E07

>  <Column 4>
MMV1634557

>  <Column 5>
10 mM

>  <Column 6>
ANTIBACTERIALS

>  <Column 7>


>  <Column 8>
None

>  <Column 9>


>  <Column 10>
O=C5C1=C(NC4=C(N(C1C3=CC(=C(OCC2=CC=CC=C2)C=C3)OC)C(=O)C)C=CC=C4)CC(C5)(C)C

>  <Column 11>
NA

>  <Column 12>
WO 2007026024

>  <Column 13>
496.6

>  <Column 14>
C31 H32 N2 O4

>  <Tox-Glu>
ATCTOX

>  <Column 15>


>  <Column 16>
102 

>  <Column 17>
105 

>  <Column 18>
94 

>  <Column 19>


>  <Tox-Gal>
CTOXGAL

>  <Column 20>


>  <Column 21>
100 

>  <Column 22>
105 

>  <Column 23>
75 

>  <Column 24>


>  <Column 25>


>  <PAMPA>
PAMPA

>  <Column 26>
260

>  <Column 27>


>  <Column 28>


>  <Mouse>
ATMETMOU

>  <Column 29>
>768

>  <Column 30>


$$$$
Compound 47
Actelion Java MolfileCreator 2.0

  0  0  0  0  0  0              0 V3000
M  V30 BEGIN CTAB
M  V30 COUNTS 27 30 0 0 0
M  V30 BEGIN ATOM
M  V30 1 F 6.4951 -3.0 0.0 0
M  V30 2 C 5.1961 -2.2499 0.0 0
M  V30 3 C 5.1961 -0.75 0.0 0
M  V30 4 C 3.8971 -2.9999 0.0 0
M  V30 5 C 3.8971 0.0 0.0 0
M  V30 6 C 2.598 -2.25 0.0 0
M  V30 7 C 2.598 -0.75 0.0 0
M  V30 8 N 1.299 0.0 0.0 0
M  V30 9 C 0.0 -0.75 0.0 0
M  V30 10 N -1.299 0.0 0.0 0
M  V30 11 N 0.0 -2.2499 0.0 0
M  V30 12 C -2.598 -0.7499 0.0 0
M  V30 13 C -1.299 -2.9999 0.0 0
M  V30 14 N -3.8971 0.0 0.0 0
M  V30 15 C -2.598 -2.2499 0.0 0
M  V30 16 C -1.299 -4.4999 0.0 0
M  V30 17 C -3.8971 1.5 0.0 0 CFG=2
M  V30 18 C -5.1961 -0.7499 0.0 0
M  V30 19 C -3.8971 -2.9999 0.0 0
M  V30 20 C -5.1961 2.25 0.0 0
M  V30 21 C -2.598 2.25 0.0 0
M  V30 22 C -6.4951 0.0 0.0 0
M  V30 23 C -6.4951 1.5 0.0 0
M  V30 24 C -5.1961 3.75 0.0 0
M  V30 25 C -7.7942 2.25 0.0 0
M  V30 26 C -6.4951 4.5 0.0 0
M  V30 27 C -7.7942 3.75 0.0 0
M  V30 END ATOM
M  V30 BEGIN BOND
M  V30 1 1 1 2
M  V30 2 2 2 3
M  V30 3 1 2 4
M  V30 4 1 3 5
M  V30 5 2 4 6
M  V30 6 2 5 7
M  V30 7 1 7 8
M  V30 8 1 8 9
M  V30 9 2 9 10
M  V30 10 1 9 11
M  V30 11 1 10 12
M  V30 12 2 11 13
M  V30 13 1 12 14
M  V30 14 2 12 15
M  V30 15 1 13 16
M  V30 16 1 17 14
M  V30 17 1 14 18
M  V30 18 1 15 19
M  V30 19 1 17 20
M  V30 20 1 17 21 CFG=3
M  V30 21 1 18 22
M  V30 22 2 20 23
M  V30 23 1 20 24
M  V30 24 1 23 25
M  V30 25 2 24 26
M  V30 26 2 25 27
M  V30 27 1 6 7
M  V30 28 1 13 15
M  V30 29 1 22 23
M  V30 30 1 26 27
M  V30 END BOND
M  V30 BEGIN COLLECTION
M  V30 MDLV30/STERAC1 ATOMS=(1 17)
M  V30 END COLLECTION
M  V30 END CTAB
M  END
>  <Column 1>
46

>  <Column 2>
PandemicResponseBox - Plate A

>  <Column 3>
F07

>  <Column 4>
MMV030787

>  <Column 5>
10 mM

>  <Column 6>
ANTIBACTERIALS

>  <Column 7>


>  <Column 8>
None

>  <Column 9>
Revaprazan

>  <Column 10>
FC1=CC=C(C=C1)NC2=NC(N3C(C)C4=C(CC3)C=CC=C4)=C(C(C)=N2)C

>  <Column 11>
CHEMBL1618279

>  <Column 12>
WO 2007064128

>  <Column 13>
362.4

>  <Column 14>
C22H23FN4

>  <Tox-Glu>
ATCTOX

>  <Column 15>


>  <Column 16>
65 

>  <Column 17>
1 

>  <Column 18>
1 

>  <Column 19>


>  <Tox-Gal>
CTOXGAL

>  <Column 20>


>  <Column 21>
32 

>  <Column 22>
0 

>  <Column 23>
1 

>  <Column 24>


>  <Column 25>


>  <PAMPA>
PAMPA

>  <Column 26>
73

>  <Column 27>


>  <Column 28>


>  <Mouse>
ATMETMOU

>  <Column 29>
201

>  <Column 30>


$$$$
Compound 48
Actelion Java MolfileCreator 2.0

  0  0  0  0  0  0              0 V3000
M  V30 BEGIN CTAB
M  V30 COUNTS 21 22 0 0 0
M  V30 BEGIN ATOM
M  V30 1 O 0.866 0.0 0.0 0
M  V30 2 C 1.732 -0.5 0.0 0
M  V30 3 C 0.0 -0.5 0.0 0
M  V30 4 C 1.732 -1.5 0.0 0
M  V30 5 C 2.598 0.0 0.0 0
M  V30 6 O 0.866 -1.9999 0.0 0
M  V30 7 C 2.598 -2.0 0.0 0
M  V30 8 O 2.598 0.9999 0.0 0
M  V30 9 C 3.4641 -0.5 0.0 0
M  V30 10 C 0.866 -2.9999 0.0 0
M  V30 11 C 3.4641 -1.5 0.0 0
M  V30 12 C 1.732 1.5 0.0 0
M  V30 13 C 4.3301 -2.0 0.0 0
M  V30 14 C 5.1961 -1.5 0.0 0
M  V30 15 C 6.0621 -2.0 0.0 0
M  V30 16 C 5.1961 -0.5 0.0 0
M  V30 17 N 6.9282 -1.5 0.0 0
M  V30 18 N 6.0621 -3.0 0.0 0
M  V30 19 N 6.0621 0.0 0.0 0
M  V30 20 C 6.9282 -0.5 0.0 0
M  V30 21 N 7.7942 0.0 0.0 0
M  V30 END ATOM
M  V30 BEGIN BOND
M  V30 1 1 1 2
M  V30 2 1 1 3
M  V30 3 2 2 4
M  V30 4 1 2 5
M  V30 5 1 4 6
M  V30 6 1 4 7
M  V30 7 1 5 8
M  V30 8 2 5 9
M  V30 9 1 6 10
M  V30 10 2 7 11
M  V30 11 1 8 12
M  V30 12 1 11 13
M  V30 13 1 13 14
M  V30 14 2 14 15
M  V30 15 1 14 16
M  V30 16 1 15 17
M  V30 17 1 15 18
M  V30 18 2 16 19
M  V30 19 2 17 20
M  V30 20 1 20 21
M  V30 21 1 9 11
M  V30 22 1 19 20
M  V30 END BOND
M  V30 END CTAB
M  END
>  <Column 1>
47

>  <Column 2>
PandemicResponseBox - Plate A

>  <Column 3>
G07

>  <Column 4>
MMV000028

>  <Column 5>
10 mM

>  <Column 6>
ANTIBACTERIALS

>  <Column 7>


>  <Column 8>
None

>  <Column 9>
Trimethoprim

>  <Column 10>
COc1cc(Cc2cnc(N)nc2N)cc(OC)c1OC

>  <Column 11>
CHEMBL22

>  <Column 12>


>  <Column 13>
290.3

>  <Column 14>
C14H18N4O3

>  <Tox-Glu>
ATCTOX

>  <Column 15>


>  <Column 16>
96 

>  <Column 17>
94 

>  <Column 18>
88 

>  <Column 19>


>  <Tox-Gal>
CTOXGAL

>  <Column 20>


>  <Column 21>
99 

>  <Column 22>
98 

>  <Column 23>
96 

>  <Column 24>


>  <Column 25>


>  <PAMPA>
PAMPA

>  <Column 26>
undetected

>  <Column 27>
large blank peak

>  <Column 28>


>  <Mouse>
ATMETMOU

>  <Column 29>
8

>  <Column 30>


$$$$
Compound 49
Actelion Java MolfileCreator 2.0

  0  0  0  0  0  0              0 V3000
M  V30 BEGIN CTAB
M  V30 COUNTS 25 27 0 0 0
M  V30 BEGIN ATOM
M  V30 1 Cl 0.866 0.9999 0.0 0
M  V30 2 C 1.732 1.4999 0.0 0
M  V30 3 C 2.598 1.0 0.0 0
M  V30 4 C 1.732 2.4999 0.0 0
M  V30 5 C 3.4641 1.5 0.0 0
M  V30 6 C 2.598 0.0 0.0 0 CFG=1
M  V30 7 C 2.598 3.0 0.0 0
M  V30 8 C 3.4641 2.5 0.0 0
M  V30 9 O 1.732 -0.5 0.0 0
M  V30 10 C 3.4641 -0.5 0.0 0
M  V30 11 Cl 2.598 4.0 0.0 0
M  V30 12 C 0.866 0.0 0.0 0
M  V30 13 N 4.3301 0.0 0.0 0
M  V30 14 C 0.0 -0.5 0.0 0
M  V30 15 C 5.2436 -0.4067 0.0 0
M  V30 16 C 4.4346 0.9945 0.0 0
M  V30 17 C -0.866 0.0 0.0 0
M  V30 18 C 0.0 -1.4999 0.0 0
M  V30 19 N 5.9128 0.3364 0.0 0
M  V30 20 C 5.4128 1.2024 0.0 0
M  V30 21 Cl -0.866 1.0 0.0 0
M  V30 22 C -1.732 -0.4999 0.0 0
M  V30 23 C -0.866 -1.9999 0.0 0
M  V30 24 C -1.732 -1.4999 0.0 0
M  V30 25 Cl -2.598 -1.9999 0.0 0
M  V30 END ATOM
M  V30 BEGIN BOND
M  V30 1 1 1 2
M  V30 2 2 2 3
M  V30 3 1 2 4
M  V30 4 1 3 5
M  V30 5 1 6 3
M  V30 6 2 4 7
M  V30 7 2 5 8
M  V30 8 1 6 9 CFG=3
M  V30 9 1 6 10
M  V30 10 1 7 11
M  V30 11 1 9 12
M  V30 12 1 10 13
M  V30 13 1 12 14
M  V30 14 1 13 15
M  V30 15 1 13 16
M  V30 16 2 14 17
M  V30 17 1 14 18
M  V30 18 2 15 19
M  V30 19 2 16 20
M  V30 20 1 17 21
M  V30 21 1 17 22
M  V30 22 2 18 23
M  V30 23 2 22 24
M  V30 24 1 24 25
M  V30 25 1 7 8
M  V30 26 1 19 20
M  V30 27 1 23 24
M  V30 END BOND
M  V30 BEGIN COLLECTION
M  V30 MDLV30/STERAC1 ATOMS=(1 6)
M  V30 END COLLECTION
M  V30 END CTAB
M  END
>  <Column 1>
48

>  <Column 2>
PandemicResponseBox - Plate A

>  <Column 3>
H07

>  <Column 4>
MMV002722

>  <Column 5>
10 mM

>  <Column 6>
ANTIBACTERIALS

>  <Column 7>
1

>  <Column 8>
Hydrochloric acid

>  <Column 9>
Miconazole

>  <Column 10>
Clc1ccc(COC(Cn2ccnc2)c3ccc(Cl)cc3Cl)c(Cl)c1

>  <Column 11>
CHEMBL91

>  <Column 12>


>  <Column 13>
452.6

>  <Column 14>
C18H14Cl4N2O

>  <Tox-Glu>
ATCTOX

>  <Column 15>


>  <Column 16>
54 

>  <Column 17>
0 

>  <Column 18>
1 

>  <Column 19>


>  <Tox-Gal>
CTOXGAL

>  <Column 20>


>  <Column 21>
47 

>  <Column 22>
0 

>  <Column 23>
1 

>  <Column 24>


>  <Column 25>


>  <PAMPA>
PAMPA

>  <Column 26>
298

>  <Column 27>


>  <Column 28>


>  <Mouse>
ATMETMOU

>  <Column 29>
262

>  <Column 30>


$$$$
Compound 50
Actelion Java MolfileCreator 2.0

  0  0  0  0  0  0              0 V3000
M  V30 BEGIN CTAB
M  V30 COUNTS 22 24 0 0 0
M  V30 BEGIN ATOM
M  V30 1 O 10.3923 -2.25 0.0 0
M  V30 2 C 10.3923 -0.75 0.0 0
M  V30 3 C 9.0932 -3.0 0.0 0
M  V30 4 C 9.0932 0.0 0.0 0
M  V30 5 C 11.6913 0.0 0.0 0
M  V30 6 C 7.7942 -2.25 0.0 0
M  V30 7 C 9.0932 -4.4999 0.0 0
M  V30 8 C 9.0932 1.4999 0.0 0
M  V30 9 C 7.7942 -0.75 0.0 0
M  V30 10 C 11.6913 1.4999 0.0 0
M  V30 11 C 6.4951 -3.0 0.0 0
M  V30 12 C 7.7942 -5.25 0.0 0
M  V30 13 C 10.3923 2.2499 0.0 0
M  V30 14 C 6.4951 0.0 0.0 0
M  V30 15 O 12.9903 2.2499 0.0 0
M  V30 16 C 6.4951 -4.5 0.0 0
M  V30 17 O 7.7942 -6.75 0.0 0
M  V30 18 C 5.1961 -0.75 0.0 0
M  V30 19 C 3.8971 0.0 0.0 0
M  V30 20 C 2.598 -0.75 0.0 0
M  V30 21 C 1.299 0.0 0.0 0
M  V30 22 C 0.0 -0.75 0.0 0
M  V30 END ATOM
M  V30 BEGIN BOND
M  V30 1 1 1 2
M  V30 2 1 1 3
M  V30 3 2 2 4
M  V30 4 1 2 5
M  V30 5 2 3 6
M  V30 6 1 3 7
M  V30 7 1 4 8
M  V30 8 1 4 9
M  V30 9 2 5 10
M  V30 10 1 6 11
M  V30 11 2 7 12
M  V30 12 2 8 13
M  V30 13 1 9 14
M  V30 14 1 10 15
M  V30 15 2 11 16
M  V30 16 1 12 17
M  V30 17 1 14 18
M  V30 18 1 18 19
M  V30 19 1 19 20
M  V30 20 1 20 21
M  V30 21 1 21 22
M  V30 22 1 6 9
M  V30 23 1 10 13
M  V30 24 1 12 16
M  V30 END BOND
M  V30 END CTAB
M  END
>  <Column 1>
49

>  <Column 2>
PandemicResponseBox - Plate A

>  <Column 3>
A08

>  <Column 4>
MMV1593535

>  <Column 5>
10 mM

>  <Column 6>
ANTIBACTERIALS

>  <Column 7>


>  <Column 8>
None

>  <Column 9>


>  <Column 10>
CCCCCCC1c2ccc(O)cc2Oc3cc(O)ccc13

>  <Column 11>
CHEMBL3735815

>  <Column 12>


>  <Column 13>
298.4

>  <Column 14>
C19 H22 O3

>  <Tox-Glu>
ATCTOX

>  <Column 15>


>  <Column 16>
88 

>  <Column 17>
5 

>  <Column 18>
0 

>  <Column 19>


>  <Tox-Gal>
CTOXGAL

>  <Column 20>


>  <Column 21>
87 

>  <Column 22>
0 

>  <Column 23>
0 

>  <Column 24>


>  <Column 25>


>  <PAMPA>
PAMPA

>  <Column 26>
undetected

>  <Column 27>
low sensitivity

>  <Column 28>


>  <Mouse>
ATMETMOU

>  <Column 29>
532

>  <Column 30>


$$$$
Compound 51
Actelion Java MolfileCreator 2.0

  0  0  0  0  0  0              0 V3000
M  V30 BEGIN CTAB
M  V30 COUNTS 31 34 0 0 0
M  V30 BEGIN ATOM
M  V30 1 F 7.4538 -2.744 0.0 0
M  V30 2 C 7.3492 -3.7385 0.0 0
M  V30 3 F 8.3438 -3.8431 0.0 0
M  V30 4 F 7.2447 -4.7331 0.0 0
M  V30 5 C 6.3547 -3.634 0.0 0
M  V30 6 C 5.948 -2.7205 0.0 0
M  V30 7 C 5.7669 -4.443 0.0 0
M  V30 8 C 4.9535 -2.6159 0.0 0
M  V30 9 C 4.7724 -4.3385 0.0 0
M  V30 10 C 4.3657 -3.4249 0.0 0
M  V30 11 C 4.5467 -1.7024 0.0 0 CFG=1
M  V30 12 O 5.0467 -0.8364 0.0 0
M  V30 13 C 3.5686 -1.4945 0.0 0 CFG=1
M  V30 14 C 4.3776 -0.0932 0.0 0
M  V30 15 N 3.4641 -0.5 0.0 0
M  V30 16 C 2.8254 -2.1636 0.0 0
M  V30 17 O 4.5855 0.8848 0.0 0
M  V30 18 C 2.598 0.0 0.0 0
M  V30 19 O 2.598 1.0 0.0 0
M  V30 20 N 1.732 -0.5 0.0 0
M  V30 21 C 0.866 0.0 0.0 0
M  V30 22 C 0.0 -0.5 0.0 0
M  V30 23 C -0.866 0.0 0.0 0
M  V30 24 C 0.0 -1.4999 0.0 0
M  V30 25 C -1.732 -0.4999 0.0 0
M  V30 26 C -0.866 1.0 0.0 0
M  V30 27 N -0.866 -1.9999 0.0 0
M  V30 28 C -1.732 -1.4999 0.0 0
M  V30 29 C -2.598 0.0 0.0 0
M  V30 30 C -1.732 1.5 0.0 0
M  V30 31 C -2.598 1.0 0.0 0
M  V30 END ATOM
M  V30 BEGIN BOND
M  V30 1 1 1 2
M  V30 2 1 2 3
M  V30 3 1 2 4
M  V30 4 1 2 5
M  V30 5 2 5 6
M  V30 6 1 5 7
M  V30 7 1 6 8
M  V30 8 2 7 9
M  V30 9 2 8 10
M  V30 10 1 11 8 CFG=3
M  V30 11 1 11 12
M  V30 12 1 13 11
M  V30 13 1 12 14
M  V30 14 1 13 15
M  V30 15 1 13 16 CFG=3
M  V30 16 2 14 17
M  V30 17 1 15 18
M  V30 18 2 18 19
M  V30 19 1 18 20
M  V30 20 1 20 21
M  V30 21 1 21 22
M  V30 22 1 22 23
M  V30 23 2 22 24
M  V30 24 1 23 25
M  V30 25 2 23 26
M  V30 26 1 24 27
M  V30 27 1 25 28
M  V30 28 2 25 29
M  V30 29 1 26 30
M  V30 30 1 29 31
M  V30 31 1 9 10
M  V30 32 1 14 15
M  V30 33 2 27 28
M  V30 34 2 30 31
M  V30 END BOND
M  V30 BEGIN COLLECTION
M  V30 MDLV30/STEABS ATOMS=(2 11 13)
M  V30 END COLLECTION
M  V30 END CTAB
M  END
>  <Column 1>
50

>  <Column 2>
PandemicResponseBox - Plate A

>  <Column 3>
B08

>  <Column 4>
MMV1593533

>  <Column 5>
10 mM

>  <Column 6>
ANTIBACTERIALS

>  <Column 7>


>  <Column 8>
None

>  <Column 9>


>  <Column 10>
C[C@H]1[C@H](OC(=O)N1C(=O)NCc2cncc3ccccc23)c4cccc(c4)C(F)(F)F

>  <Column 11>
NA

>  <Column 12>
 Journal of Medicinal Chemistry (2017), 60(9), 3851-3865, WO 2017106138 

>  <Column 13>
429.4

>  <Column 14>
C22 H18 F3 N3 O3

>  <Tox-Glu>
ATCTOX

>  <Column 15>


>  <Column 16>
96 

>  <Column 17>
63 

>  <Column 18>
10 

>  <Column 19>


>  <Tox-Gal>
CTOXGAL

>  <Column 20>


>  <Column 21>
7 

>  <Column 22>
0 

>  <Column 23>
0 

>  <Column 24>


>  <Column 25>


>  <PAMPA>
PAMPA

>  <Column 26>
306

>  <Column 27>


>  <Column 28>


>  <Mouse>
ATMETMOU

>  <Column 29>
161

>  <Column 30>


$$$$
Compound 52
Actelion Java MolfileCreator 2.0

  0  0  0  0  0  0              0 V3000
M  V30 BEGIN CTAB
M  V30 COUNTS 16 18 0 0 0
M  V30 BEGIN ATOM
M  V30 1 O 0.866 0.0 0.0 0
M  V30 2 C 0.0 -0.5 0.0 0
M  V30 3 N -0.9135 -0.0932 0.0 0
M  V30 4 C -0.1045 -1.4945 0.0 0
M  V30 5 N -1.5826 -0.8364 0.0 0
M  V30 6 C -1.0826 -1.7024 0.0 0
M  V30 7 C -1.4894 -2.6159 0.0 0
M  V30 8 C -2.4839 -2.7205 0.0 0
M  V30 9 C -0.9016 -3.4249 0.0 0
M  V30 10 C -2.8906 -3.634 0.0 0
M  V30 11 C -3.0717 -1.9114 0.0 0
M  V30 12 C -1.3083 -4.3385 0.0 0
M  V30 13 C -2.3028 -4.443 0.0 0
M  V30 14 C -3.8851 -3.7385 0.0 0
M  V30 15 C -4.0662 -2.016 0.0 0
M  V30 16 C -4.4729 -2.9295 0.0 0
M  V30 END ATOM
M  V30 BEGIN BOND
M  V30 1 1 1 2
M  V30 2 2 2 3
M  V30 3 1 2 4
M  V30 4 1 3 5
M  V30 5 2 4 6
M  V30 6 1 6 7
M  V30 7 1 7 8
M  V30 8 2 7 9
M  V30 9 1 8 10
M  V30 10 2 8 11
M  V30 11 1 9 12
M  V30 12 1 10 13
M  V30 13 2 10 14
M  V30 14 1 11 15
M  V30 15 1 14 16
M  V30 16 1 5 6
M  V30 17 2 12 13
M  V30 18 2 15 16
M  V30 END BOND
M  V30 END CTAB
M  END
>  <Column 1>
51

>  <Column 2>
PandemicResponseBox - Plate A

>  <Column 3>
C08

>  <Column 4>
MMV422940

>  <Column 5>
10 mM

>  <Column 6>
ANTIBACTERIALS

>  <Column 7>


>  <Column 8>
None

>  <Column 9>


>  <Column 10>
Oc1cc([nH]n1)c2cccc3ccccc23

>  <Column 11>
CHEMBL1567226

>  <Column 12>


>  <Column 13>
210.2

>  <Column 14>
C13H10N2O

>  <Tox-Glu>
ATCTOX

>  <Column 15>


>  <Column 16>
98 

>  <Column 17>
96 

>  <Column 18>
98 

>  <Column 19>


>  <Tox-Gal>
CTOXGAL

>  <Column 20>


>  <Column 21>
98 

>  <Column 22>
98 

>  <Column 23>
107 

>  <Column 24>


>  <Column 25>


>  <PAMPA>
PAMPA

>  <Column 26>
99

>  <Column 27>


>  <Column 28>


>  <Mouse>
ATMETMOU

>  <Column 29>
55

>  <Column 30>
Low sensitivity

$$$$
Compound 53
Actelion Java MolfileCreator 2.0

  0  0  0  0  0  0              0 V3000
M  V30 BEGIN CTAB
M  V30 COUNTS 29 31 0 0 0
M  V30 BEGIN ATOM
M  V30 1 S 5.1961 4.4999 0.0 0 CFG=2
M  V30 2 O 5.1961 5.5 0.0 0
M  V30 3 C 4.3301 4.0 0.0 0
M  V30 4 C 6.0621 4.0 0.0 0
M  V30 5 C 3.4641 4.5 0.0 0
M  V30 6 C 4.3301 3.0 0.0 0
M  V30 7 C 3.4641 5.5 0.0 0
M  V30 8 C 2.598 4.0 0.0 0
M  V30 9 C 3.4641 2.5 0.0 0
M  V30 10 N 3.4641 6.5 0.0 0
M  V30 11 O 1.732 4.5 0.0 0
M  V30 12 N 2.598 3.0 0.0 0
M  V30 13 C 3.4641 1.5 0.0 0
M  V30 14 C 2.598 1.0 0.0 0
M  V30 15 C 4.3301 1.0 0.0 0
M  V30 16 C 2.598 0.0 0.0 0
M  V30 17 C 4.3301 0.0 0.0 0
M  V30 18 O 1.732 -0.5 0.0 0
M  V30 19 C 3.4641 -0.4999 0.0 0
M  V30 20 C 0.866 0.0 0.0 0
M  V30 21 C 0.0 -0.5 0.0 0
M  V30 22 C -0.866 0.0 0.0 0
M  V30 23 C 0.0 -1.4999 0.0 0
M  V30 24 C -1.732 -0.4999 0.0 0
M  V30 25 C -0.866 -1.9999 0.0 0
M  V30 26 C -1.732 -1.4999 0.0 0
M  V30 27 C -2.598 -1.9999 0.0 0
M  V30 28 C -3.4641 -1.4999 0.0 0
M  V30 29 C -2.598 -2.9999 0.0 0
M  V30 END ATOM
M  V30 BEGIN BOND
M  V30 1 2 1 2
M  V30 2 1 1 3
M  V30 3 1 1 4 CFG=1
M  V30 4 2 3 5
M  V30 5 1 3 6
M  V30 6 1 5 7
M  V30 7 1 5 8
M  V30 8 2 6 9
M  V30 9 3 7 10
M  V30 10 2 8 11
M  V30 11 1 8 12
M  V30 12 1 9 13
M  V30 13 2 13 14
M  V30 14 1 13 15
M  V30 15 1 14 16
M  V30 16 2 15 17
M  V30 17 1 16 18
M  V30 18 2 16 19
M  V30 19 1 18 20
M  V30 20 1 20 21
M  V30 21 2 21 22
M  V30 22 1 21 23
M  V30 23 1 22 24
M  V30 24 2 23 25
M  V30 25 2 24 26
M  V30 26 1 26 27
M  V30 27 1 27 28
M  V30 28 1 27 29
M  V30 29 1 9 12
M  V30 30 1 17 19
M  V30 31 1 25 26
M  V30 END BOND
M  V30 BEGIN COLLECTION
M  V30 MDLV30/STERAC1 ATOMS=(1 1)
M  V30 END COLLECTION
M  V30 END CTAB
M  END
>  <Column 1>
52

>  <Column 2>
PandemicResponseBox - Plate A

>  <Column 3>
D08

>  <Column 4>
MMV1582497

>  <Column 5>
10 mM

>  <Column 6>
ANTIBACTERIALS

>  <Column 7>


>  <Column 8>
None

>  <Column 9>


>  <Column 10>
CC(C)c1ccc(COc2cccc(c2)C3=CC(=C(C#N)C(=O)N3)S(=O)C)cc1

>  <Column 11>
CHEMBL3394250

>  <Column 12>


>  <Column 13>
406.5

>  <Column 14>
C23 H22 N2 O3 S

>  <Tox-Glu>
ATCTOX

>  <Column 15>


>  <Column 16>
85 

>  <Column 17>
4 

>  <Column 18>
1 

>  <Column 19>


>  <Tox-Gal>
CTOXGAL

>  <Column 20>


>  <Column 21>
93 

>  <Column 22>
9 

>  <Column 23>
1 

>  <Column 24>


>  <Column 25>


>  <PAMPA>
PAMPA

>  <Column 26>
undetected

>  <Column 27>
low sensitivity

>  <Column 28>


>  <Mouse>
ATMETMOU

>  <Column 29>


>  <Column 30>
Not determined; Low sensitivity

$$$$
Compound 54
Actelion Java MolfileCreator 2.0

  0  0  0  0  0  0              0 V3000
M  V30 BEGIN CTAB
M  V30 COUNTS 28 31 0 0 0
M  V30 BEGIN ATOM
M  V30 1 O 3.4641 -0.5 0.0 0
M  V30 2 C 2.598 0.0 0.0 0
M  V30 3 N 1.732 -0.5 0.0 0
M  V30 4 C 2.598 1.0 0.0 0
M  V30 5 C 0.866 0.0 0.0 0
M  V30 6 O 3.407 1.5877 0.0 0
M  V30 7 C 1.789 1.5877 0.0 0
M  V30 8 C 0.0 -0.5 0.0 0
M  V30 9 C 3.098 2.5388 0.0 0
M  V30 10 C 2.098 2.5388 0.0 0
M  V30 11 N -0.9135 -0.0932 0.0 0
M  V30 12 C -0.1045 -1.4945 0.0 0
M  V30 13 C 3.598 3.4048 0.0 0
M  V30 14 C 1.598 3.4048 0.0 0
M  V30 15 C -1.5826 -0.8364 0.0 0
M  V30 16 C -1.1214 0.8848 0.0 0
M  V30 17 C -1.0826 -1.7024 0.0 0
M  V30 18 C 3.098 4.2708 0.0 0
M  V30 19 C 2.098 4.2708 0.0 0
M  V30 20 C -2.5826 -0.8364 0.0 0
M  V30 21 C -0.3783 1.554 0.0 0
M  V30 22 C -1.5826 -2.5684 0.0 0
M  V30 23 C -3.0826 -1.7024 0.0 0
M  V30 24 O 0.5727 1.2449 0.0 0
M  V30 25 O -0.5862 2.5321 0.0 0
M  V30 26 C -2.5826 -2.5684 0.0 0
M  V30 27 O -3.0826 -3.4344 0.0 0
M  V30 28 C -2.5826 -4.3005 0.0 0
M  V30 END ATOM
M  V30 BEGIN BOND
M  V30 1 2 1 2
M  V30 2 1 2 3
M  V30 3 1 2 4
M  V30 4 1 3 5
M  V30 5 1 4 6
M  V30 6 2 4 7
M  V30 7 1 5 8
M  V30 8 1 6 9
M  V30 9 1 7 10
M  V30 10 1 8 11
M  V30 11 2 8 12
M  V30 12 1 9 13
M  V30 13 1 10 14
M  V30 14 1 11 15
M  V30 15 1 11 16
M  V30 16 1 12 17
M  V30 17 2 13 18
M  V30 18 2 14 19
M  V30 19 1 15 20
M  V30 20 1 16 21
M  V30 21 1 17 22
M  V30 22 2 20 23
M  V30 23 2 21 24
M  V30 24 1 21 25
M  V30 25 2 22 26
M  V30 26 1 26 27
M  V30 27 1 27 28
M  V30 28 2 9 10
M  V30 29 2 15 17
M  V30 30 1 18 19
M  V30 31 1 23 26
M  V30 END BOND
M  V30 END CTAB
M  END
>  <Column 1>
53

>  <Column 2>
PandemicResponseBox - Plate A

>  <Column 3>
E08

>  <Column 4>
MMV1581553

>  <Column 5>
10 mM

>  <Column 6>
ANTIBACTERIALS

>  <Column 7>


>  <Column 8>
None

>  <Column 9>


>  <Column 10>
COc1ccc2c(c1)cc(CNC(=O)c3oc4ccccc4c3)n2CC(=O)O

>  <Column 11>
CHEMBL1229883

>  <Column 12>


>  <Column 13>
378.4

>  <Column 14>
C21 H18 N2 O5

>  <Tox-Glu>
ATCTOX

>  <Column 15>


>  <Column 16>
101 

>  <Column 17>
99 

>  <Column 18>
97 

>  <Column 19>


>  <Tox-Gal>
CTOXGAL

>  <Column 20>


>  <Column 21>
99 

>  <Column 22>
97 

>  <Column 23>
104 

>  <Column 24>


>  <Column 25>


>  <PAMPA>
PAMPA

>  <Column 26>
34

>  <Column 27>


>  <Column 28>


>  <Mouse>
ATMETMOU

>  <Column 29>


>  <Column 30>
Not determined; Large variations

$$$$
Compound 55
Actelion Java MolfileCreator 2.0

  0  0  0  0  0  0              0 V3000
M  V30 BEGIN CTAB
M  V30 COUNTS 23 25 0 0 0
M  V30 BEGIN ATOM
M  V30 1 O 6.0029 0.732 0.0 0
M  V30 2 C 6.5029 -0.1339 0.0 0
M  V30 3 C 6.0029 -0.9999 0.0 0
M  V30 4 C 7.5029 -0.1339 0.0 0
M  V30 5 C 5.0029 -0.9999 0.0 0
M  V30 6 C 6.5029 -1.866 0.0 0
M  V30 7 C 8.0029 -0.9999 0.0 0
M  V30 8 C 8.0029 0.732 0.0 0
M  V30 9 N 4.4151 -0.1909 0.0 0
M  V30 10 N 4.4151 -1.809 0.0 0
M  V30 11 C 7.5029 -1.866 0.0 0
M  V30 12 C 7.1369 1.232 0.0 0
M  V30 13 C 8.5029 1.598 0.0 0
M  V30 14 C 8.8689 0.232 0.0 0
M  V30 15 C 3.4641 -0.4999 0.0 0
M  V30 16 C 3.4641 -1.4999 0.0 0
M  V30 17 C 2.598 0.0 0.0 0
M  V30 18 C 2.598 -2.0 0.0 0
M  V30 19 C 1.732 -0.5 0.0 0
M  V30 20 C 1.732 -1.4999 0.0 0
M  V30 21 C 0.866 0.0 0.0 0
M  V30 22 N 0.866 1.0 0.0 0
M  V30 23 N 0.0 -0.5 0.0 0
M  V30 END ATOM
M  V30 BEGIN BOND
M  V30 1 1 1 2
M  V30 2 2 2 3
M  V30 3 1 2 4
M  V30 4 1 3 5
M  V30 5 1 3 6
M  V30 6 2 4 7
M  V30 7 1 4 8
M  V30 8 2 5 9
M  V30 9 1 5 10
M  V30 10 2 6 11
M  V30 11 1 8 12
M  V30 12 1 8 13
M  V30 13 1 8 14
M  V30 14 1 9 15
M  V30 15 1 10 16
M  V30 16 1 15 17
M  V30 17 1 16 18
M  V30 18 2 17 19
M  V30 19 2 18 20
M  V30 20 1 19 21
M  V30 21 2 21 22
M  V30 22 1 21 23
M  V30 23 1 7 11
M  V30 24 2 15 16
M  V30 25 1 19 20
M  V30 END BOND
M  V30 END CTAB
M  END
>  <Column 1>
54

>  <Column 2>
PandemicResponseBox - Plate A

>  <Column 3>
F08

>  <Column 4>
MMV1581548

>  <Column 5>
10 mM

>  <Column 6>
ANTIBACTERIALS

>  <Column 7>


>  <Column 8>
None

>  <Column 9>


>  <Column 10>
CC(C)(C)c1cccc(c1O)c2nc3cc(ccc3[nH]2)C(=N)N

>  <Column 11>
CHEMBL288462

>  <Column 12>


>  <Column 13>
308.4

>  <Column 14>
C18 H20 N4 O

>  <Tox-Glu>
ATCTOX

>  <Column 15>


>  <Column 16>
79 

>  <Column 17>
0 

>  <Column 18>
1 

>  <Column 19>


>  <Tox-Gal>
CTOXGAL

>  <Column 20>


>  <Column 21>
96 

>  <Column 22>
0 

>  <Column 23>
1 

>  <Column 24>


>  <Column 25>


>  <PAMPA>
PAMPA

>  <Column 26>
<4

>  <Column 27>


>  <Column 28>


>  <Mouse>
ATMETMOU

>  <Column 29>
-2

>  <Column 30>


$$$$
Compound 56
Actelion Java MolfileCreator 2.0

  0  0  0  0  0  0              0 V3000
M  V30 BEGIN CTAB
M  V30 COUNTS 29 33 0 0 0
M  V30 BEGIN ATOM
M  V30 1 F -2.3277 -3.3221 0.0 0
M  V30 2 C -0.9011 -3.7856 0.0 0
M  V30 3 C 0.2135 -2.7819 0.0 0
M  V30 4 C -0.5892 -5.2528 0.0 0
M  V30 5 C 1.6401 -3.2454 0.0 0
M  V30 6 C 0.8373 -5.7163 0.0 0
M  V30 7 C 2.7548 -2.2417 0.0 0
M  V30 8 C 1.952 -4.7127 0.0 0
M  V30 9 N 4.222 -2.5536 0.0 0
M  V30 10 N 2.598 -0.75 0.0 0
M  V30 11 C 4.972 -1.2546 0.0 0
M  V30 12 C 3.9683 -0.1398 0.0 0
M  V30 13 C 1.299 0.0 0.0 0
M  V30 14 C 6.4393 -0.9427 0.0 0
M  V30 15 C 4.4319 1.2866 0.0 0
M  V30 16 C 1.299 1.5 0.0 0
M  V30 17 C 6.9028 0.4838 0.0 0
M  V30 18 C 5.8991 1.5985 0.0 0
M  V30 19 N 2.5125 2.3816 0.0 0
M  V30 20 C 0.0855 2.3816 0.0 0
M  V30 21 N 2.049 3.8082 0.0 0
M  V30 22 N 0.549 3.8082 0.0 0
M  V30 23 C -0.3326 5.0217 0.0 0
M  V30 24 C 0.2774 6.3921 0.0 0
M  V30 25 C -1.8244 4.8649 0.0 0
M  V30 26 C -0.6042 7.6056 0.0 0
M  V30 27 C -2.7061 6.0785 0.0 0
M  V30 28 C -2.0959 7.4488 0.0 0
M  V30 29 F -2.9776 8.6623 0.0 0
M  V30 END ATOM
M  V30 BEGIN BOND
M  V30 1 1 1 2
M  V30 2 2 2 3
M  V30 3 1 2 4
M  V30 4 1 3 5
M  V30 5 2 4 6
M  V30 6 1 5 7
M  V30 7 2 5 8
M  V30 8 2 7 9
M  V30 9 1 7 10
M  V30 10 1 9 11
M  V30 11 1 10 12
M  V30 12 1 10 13
M  V30 13 1 11 14
M  V30 14 1 12 15
M  V30 15 1 13 16
M  V30 16 2 14 17
M  V30 17 2 15 18
M  V30 18 1 16 19
M  V30 19 2 16 20
M  V30 20 2 19 21
M  V30 21 1 20 22
M  V30 22 1 22 23
M  V30 23 2 23 24
M  V30 24 1 23 25
M  V30 25 1 24 26
M  V30 26 2 25 27
M  V30 27 2 26 28
M  V30 28 1 28 29
M  V30 29 1 6 8
M  V30 30 2 11 12
M  V30 31 1 17 18
M  V30 32 1 21 22
M  V30 33 1 27 28
M  V30 END BOND
M  V30 END CTAB
M  END
>  <Column 1>
55

>  <Column 2>
PandemicResponseBox - Plate A

>  <Column 3>
G08

>  <Column 4>
MMV1580850

>  <Column 5>
10 mM

>  <Column 6>
ANTIBACTERIALS

>  <Column 7>


>  <Column 8>
None

>  <Column 9>


>  <Column 10>
Fc1ccc(cc1)n2cc(Cn3c(nc4ccccc34)c5cccc(F)c5)nn2

>  <Column 11>
CHEMBL488064

>  <Column 12>


>  <Column 13>
387.4

>  <Column 14>
C22 H15 F2 N5

>  <Tox-Glu>
ATCTOX

>  <Column 15>


>  <Column 16>
107 

>  <Column 17>
89 

>  <Column 18>
67 

>  <Column 19>


>  <Tox-Gal>
CTOXGAL

>  <Column 20>


>  <Column 21>
102 

>  <Column 22>
74 

>  <Column 23>
6 

>  <Column 24>


>  <Column 25>


>  <PAMPA>
PAMPA

>  <Column 26>
203

>  <Column 27>


>  <Column 28>


>  <Mouse>
ATMETMOU

>  <Column 29>
>768

>  <Column 30>


$$$$
Compound 57
Actelion Java MolfileCreator 2.0

  0  0  0  0  0  0              0 V3000
M  V30 BEGIN CTAB
M  V30 COUNTS 29 32 0 0 0
M  V30 BEGIN ATOM
M  V30 1 Cl 8.1206 -1.5371 0.0 0
M  V30 2 C 7.0058 -2.5408 0.0 0
M  V30 3 C 5.5793 -2.0773 0.0 0
M  V30 4 C 7.3177 -4.008 0.0 0
M  V30 5 C 5.2674 -0.6101 0.0 0
M  V30 6 C 4.4645 -3.081 0.0 0
M  V30 7 C 6.203 -5.0117 0.0 0
M  V30 8 N 6.2711 0.5046 0.0 0
M  V30 9 C 3.8971 0.0 0.0 0
M  V30 10 C 4.7764 -4.5482 0.0 0
M  V30 11 O 5.5211 1.8036 0.0 0
M  V30 12 C 4.0539 1.4917 0.0 0
M  V30 13 C 2.598 -0.75 0.0 0
M  V30 14 C 2.9391 2.4954 0.0 0
M  V30 15 O 2.598 -2.25 0.0 0
M  V30 16 N 1.299 0.0 0.0 0
M  V30 17 C 0.0 -0.75 0.0 0 CFG=2
M  V30 18 C -1.4488 -0.3617 0.0 0
M  V30 19 C -0.3882 -2.1988 0.0 0 CFG=2
M  V30 20 O -2.1988 0.9372 0.0 0
M  V30 21 N -1.8371 -1.8106 0.0 0
M  V30 22 S -0.3097 -3.6968 0.0 0
M  V30 23 C -2.654 -3.0686 0.0 0 CFG=2
M  V30 24 C -1.71 -4.2343 0.0 0
M  V30 25 C -4.152 -3.1471 0.0 0
M  V30 26 C -2.7707 -5.295 0.0 0
M  V30 27 C -1.3218 -5.6832 0.0 0
M  V30 28 O -4.9689 -1.8891 0.0 0
M  V30 29 O -4.833 -4.4836 0.0 0
M  V30 END ATOM
M  V30 BEGIN BOND
M  V30 1 1 1 2
M  V30 2 2 2 3
M  V30 3 1 2 4
M  V30 4 1 3 5
M  V30 5 1 3 6
M  V30 6 2 4 7
M  V30 7 2 5 8
M  V30 8 1 5 9
M  V30 9 2 6 10
M  V30 10 1 8 11
M  V30 11 2 9 12
M  V30 12 1 9 13
M  V30 13 1 12 14
M  V30 14 2 13 15
M  V30 15 1 13 16
M  V30 16 1 17 16 CFG=1
M  V30 17 1 17 18
M  V30 18 1 19 17
M  V30 19 2 18 20
M  V30 20 1 18 21
M  V30 21 1 19 22 CFG=1
M  V30 22 1 23 21
M  V30 23 1 22 24
M  V30 24 1 23 25 CFG=3
M  V30 25 1 24 26
M  V30 26 1 24 27
M  V30 27 2 25 28
M  V30 28 1 25 29
M  V30 29 1 7 10
M  V30 30 1 11 12
M  V30 31 1 19 21
M  V30 32 1 23 24
M  V30 END BOND
M  V30 BEGIN COLLECTION
M  V30 MDLV30/STEABS ATOMS=(3 17 19 23)
M  V30 END COLLECTION
M  V30 END CTAB
M  END
>  <Column 1>
56

>  <Column 2>
PandemicResponseBox - Plate A

>  <Column 3>
H08

>  <Column 4>
MMV002740

>  <Column 5>
10 mM

>  <Column 6>
ANTIBACTERIALS

>  <Column 7>
1

>  <Column 8>
Sodium hydrate

>  <Column 9>
Cloxacillin

>  <Column 10>
CC1=C(C(=O)N[C@H]2[C@H]3SC(C)(C)[C@@H](N3C2=O)C(O)=O)C(=NO1)C4=C(Cl)C=CC=C4

>  <Column 11>
CHEMBL891

>  <Column 12>


>  <Column 13>
475.9

>  <Column 14>
C19 H17 Cl N3 O5 S

>  <Tox-Glu>
ATCTOX

>  <Column 15>


>  <Column 16>
100 

>  <Column 17>
101 

>  <Column 18>
99 

>  <Column 19>


>  <Tox-Gal>
CTOXGAL

>  <Column 20>


>  <Column 21>
101 

>  <Column 22>
101 

>  <Column 23>
108 

>  <Column 24>


>  <Column 25>


>  <PAMPA>
PAMPA

>  <Column 26>
undetected

>  <Column 27>
low sensitivity

>  <Column 28>


>  <Mouse>
ATMETMOU

>  <Column 29>
-9

>  <Column 30>


$$$$
Compound 58
Actelion Java MolfileCreator 2.0

  0  0  0  0  0  0              0 V3000
M  V30 BEGIN CTAB
M  V30 COUNTS 25 27 0 0 0
M  V30 BEGIN ATOM
M  V30 1 S 3.4641 -0.5 0.0 0
M  V30 2 C 4.3301 0.0 0.0 0
M  V30 3 C 2.598 0.0 0.0 0
M  V30 4 N 5.1961 -0.4999 0.0 0
M  V30 5 N 4.3301 0.9999 0.0 0
M  V30 6 C 1.732 -0.5 0.0 0
M  V30 7 C 6.0621 0.0 0.0 0
M  V30 8 C 5.1961 1.4999 0.0 0
M  V30 9 C 0.866 0.0 0.0 0
M  V30 10 N 6.9282 -0.4999 0.0 0
M  V30 11 C 6.0621 1.0 0.0 0
M  V30 12 N 5.1961 2.4999 0.0 0
M  V30 13 C 0.0 -0.5 0.0 0
M  V30 14 C 7.7942 0.0 0.0 0
M  V30 15 C 6.9282 -1.4999 0.0 0
M  V30 16 N 6.9282 1.5 0.0 0
M  V30 17 O 8.6602 -0.4999 0.0 0
M  V30 18 C 7.7942 1.0 0.0 0
M  V30 19 C 7.7942 -1.9999 0.0 0
M  V30 20 O 8.6602 1.5 0.0 0
M  V30 21 C 7.7942 -3.0 0.0 0
M  V30 22 C 8.6602 -1.5 0.0 0
M  V30 23 C 8.6602 -3.5 0.0 0
M  V30 24 C 9.5262 -2.0 0.0 0
M  V30 25 C 9.5262 -3.0 0.0 0
M  V30 END ATOM
M  V30 BEGIN BOND
M  V30 1 1 1 2
M  V30 2 1 1 3
M  V30 3 2 2 4
M  V30 4 1 2 5
M  V30 5 1 3 6
M  V30 6 1 4 7
M  V30 7 2 5 8
M  V30 8 1 6 9
M  V30 9 1 7 10
M  V30 10 2 7 11
M  V30 11 1 8 12
M  V30 12 1 9 13
M  V30 13 1 10 14
M  V30 14 1 10 15
M  V30 15 1 11 16
M  V30 16 2 14 17
M  V30 17 1 14 18
M  V30 18 1 15 19
M  V30 19 2 18 20
M  V30 20 2 19 21
M  V30 21 1 19 22
M  V30 22 1 21 23
M  V30 23 2 22 24
M  V30 24 2 23 25
M  V30 25 1 8 11
M  V30 26 1 16 18
M  V30 27 1 24 25
M  V30 END BOND
M  V30 END CTAB
M  END
>  <Column 1>
57

>  <Column 2>
PandemicResponseBox - Plate A

>  <Column 3>
A09

>  <Column 4>
MMV1579783

>  <Column 5>
10 mM

>  <Column 6>
ANTIBACTERIALS

>  <Column 7>


>  <Column 8>
None

>  <Column 9>


>  <Column 10>
CCCCSc1nc(N)c2NC(=O)C(=O)N(Cc3ccccc3)c2n1

>  <Column 11>
CHEMBL462211

>  <Column 12>


>  <Column 13>
357.4

>  <Column 14>
C17 H19 N5 O2 S

>  <Tox-Glu>
ATCTOX

>  <Column 15>


>  <Column 16>
105 

>  <Column 17>
99 

>  <Column 18>
92 

>  <Column 19>


>  <Tox-Gal>
CTOXGAL

>  <Column 20>


>  <Column 21>
99 

>  <Column 22>
92 

>  <Column 23>
91 

>  <Column 24>


>  <Column 25>


>  <PAMPA>
PAMPA

>  <Column 26>
64

>  <Column 27>


>  <Column 28>


>  <Mouse>
ATMETMOU

>  <Column 29>
133

>  <Column 30>


$$$$
Compound 59
Actelion Java MolfileCreator 2.0

  0  0  0  0  0  0              0 V3000
M  V30 BEGIN CTAB
M  V30 COUNTS 24 26 0 0 0
M  V30 BEGIN ATOM
M  V30 1 Cl 9.0932 1.5 0.0 0
M  V30 2 C 9.0932 0.0 0.0 0
M  V30 3 C 7.7942 -0.75 0.0 0
M  V30 4 C 10.3923 -0.7499 0.0 0
M  V30 5 O 6.4951 0.0 0.0 0
M  V30 6 C 7.7942 -2.25 0.0 0
M  V30 7 C 10.3923 -2.2499 0.0 0
M  V30 8 C 5.1961 -0.75 0.0 0 CFG=2
M  V30 9 C 9.0932 -2.9999 0.0 0
M  V30 10 Cl 11.6913 -2.9999 0.0 0
M  V30 11 C 3.8971 0.0 0.0 0
M  V30 12 C 5.1961 -2.25 0.0 0
M  V30 13 O 3.8971 1.5 0.0 0
M  V30 14 N 2.598 -0.75 0.0 0
M  V30 15 C 1.299 0.0 0.0 0
M  V30 16 C 0.0 -0.75 0.0 0
M  V30 17 C -1.299 0.0 0.0 0
M  V30 18 C 0.0 -2.2499 0.0 0
M  V30 19 C -2.598 -0.7499 0.0 0
M  V30 20 C -1.299 -2.9999 0.0 0
M  V30 21 O -4.0246 -0.2864 0.0 0
M  V30 22 C -2.598 -2.2499 0.0 0
M  V30 23 C -4.9063 -1.4999 0.0 0
M  V30 24 O -4.0246 -2.7135 0.0 0
M  V30 END ATOM
M  V30 BEGIN BOND
M  V30 1 1 1 2
M  V30 2 2 2 3
M  V30 3 1 2 4
M  V30 4 1 3 5
M  V30 5 1 3 6
M  V30 6 2 4 7
M  V30 7 1 8 5 CFG=1
M  V30 8 2 6 9
M  V30 9 1 7 10
M  V30 10 1 8 11
M  V30 11 1 8 12
M  V30 12 2 11 13
M  V30 13 1 11 14
M  V30 14 1 14 15
M  V30 15 1 15 16
M  V30 16 2 16 17
M  V30 17 1 16 18
M  V30 18 1 17 19
M  V30 19 2 18 20
M  V30 20 1 19 21
M  V30 21 2 19 22
M  V30 22 1 21 23
M  V30 23 1 22 24
M  V30 24 1 7 9
M  V30 25 1 20 22
M  V30 26 1 23 24
M  V30 END BOND
M  V30 BEGIN COLLECTION
M  V30 MDLV30/STERAC1 ATOMS=(1 8)
M  V30 END COLLECTION
M  V30 END CTAB
M  END
>  <Column 1>
58

>  <Column 2>
PandemicResponseBox - Plate A

>  <Column 3>
B09

>  <Column 4>
MMV1578925

>  <Column 5>
10 mM

>  <Column 6>
ANTIBACTERIALS

>  <Column 7>


>  <Column 8>
None

>  <Column 9>
MBX 1641

>  <Column 10>
CC(Oc1ccc(Cl)cc1Cl)C(=O)NCc2ccc3OCOc3c2

>  <Column 11>
CHEMBL3398004

>  <Column 12>


>  <Column 13>
368.2

>  <Column 14>
C17 H15 Cl2 N O4

>  <Tox-Glu>
ATCTOX

>  <Column 15>


>  <Column 16>
100 

>  <Column 17>
92 

>  <Column 18>
66 

>  <Column 19>


>  <Tox-Gal>
CTOXGAL

>  <Column 20>


>  <Column 21>
96 

>  <Column 22>
94 

>  <Column 23>
11 

>  <Column 24>


>  <Column 25>


>  <PAMPA>
PAMPA

>  <Column 26>
undetected

>  <Column 27>
low sensitivity

>  <Column 28>


>  <Mouse>
ATMETMOU

>  <Column 29>


>  <Column 30>
Not determined; Low sensitivity

$$$$
Compound 60
Actelion Java MolfileCreator 2.0

  0  0  0  0  0  0              0 V3000
M  V30 BEGIN CTAB
M  V30 COUNTS 18 20 0 0 0
M  V30 BEGIN ATOM
M  V30 1 F 6.446 -1.0304 0.0 0
M  V30 2 C 5.4679 -0.8225 0.0 0
M  V30 3 C 5.1588 0.1284 0.0 0
M  V30 4 C 4.7987 -1.5657 0.0 0
M  V30 5 C 4.1807 0.3364 0.0 0
M  V30 6 C 3.8206 -1.3577 0.0 0
M  V30 7 N 3.6807 1.2024 0.0 0
M  V30 8 C 3.5116 -0.4067 0.0 0
M  V30 9 C 2.7026 0.9945 0.0 0
M  V30 10 C 2.598 0.0 0.0 0
M  V30 11 C 1.732 -0.5 0.0 0
M  V30 12 C 0.866 0.0 0.0 0
M  V30 13 C 0.0 -0.5 0.0 0
M  V30 14 C -0.866 0.0 0.0 0
M  V30 15 C 0.0 -1.4999 0.0 0
M  V30 16 N -1.732 -0.4999 0.0 0
M  V30 17 C -0.866 -1.9999 0.0 0
M  V30 18 C -1.732 -1.4999 0.0 0
M  V30 END ATOM
M  V30 BEGIN BOND
M  V30 1 1 1 2
M  V30 2 2 2 3
M  V30 3 1 2 4
M  V30 4 1 3 5
M  V30 5 2 4 6
M  V30 6 1 5 7
M  V30 7 2 5 8
M  V30 8 1 7 9
M  V30 9 1 8 10
M  V30 10 1 10 11
M  V30 11 2 11 12
M  V30 12 1 12 13
M  V30 13 2 13 14
M  V30 14 1 13 15
M  V30 15 1 14 16
M  V30 16 2 15 17
M  V30 17 2 16 18
M  V30 18 1 6 8
M  V30 19 2 9 10
M  V30 20 1 17 18
M  V30 END BOND
M  V30 END CTAB
M  END
>  <Column 1>
59

>  <Column 2>
PandemicResponseBox - Plate A

>  <Column 3>
C09

>  <Column 4>
MMV1578889

>  <Column 5>
10 mM

>  <Column 6>
ANTIBACTERIALS

>  <Column 7>


>  <Column 8>
None

>  <Column 9>
680C91

>  <Column 10>
Fc1ccc2c(\C=C\c3cccnc3)c[nH]c2c1

>  <Column 11>
CHEMBL355606

>  <Column 12>


>  <Column 13>
238.3

>  <Column 14>
C15 H11 F N2

>  <Tox-Glu>
ATCTOX

>  <Column 15>


>  <Column 16>
97 

>  <Column 17>
79 

>  <Column 18>
2 

>  <Column 19>


>  <Tox-Gal>
CTOXGAL

>  <Column 20>


>  <Column 21>
99 

>  <Column 22>
96 

>  <Column 23>
6 

>  <Column 24>


>  <Column 25>


>  <PAMPA>
PAMPA

>  <Column 26>
239

>  <Column 27>


>  <Column 28>


>  <Mouse>
ATMETMOU

>  <Column 29>


>  <Column 30>
Not determined; Low sensitivity

$$$$
Compound 61
Actelion Java MolfileCreator 2.0

  0  0  0  0  0  0              0 V3000
M  V30 BEGIN CTAB
M  V30 COUNTS 33 36 0 0 0
M  V30 BEGIN ATOM
M  V30 1 O 6.9452 1.3402 0.0 0
M  V30 2 C 6.6303 -0.1412 0.0 0
M  V30 3 N 5.2467 -0.7572 0.0 0
M  V30 4 N 7.6438 -1.2668 0.0 0
M  V30 5 C 5.405 -2.2635 0.0 0
M  V30 6 C 3.935 0.0 0.0 0
M  V30 7 C 6.8865 -2.5784 0.0 0
M  V30 8 O 4.1512 -3.0809 0.0 0
M  V30 9 C 2.6233 -0.7572 0.0 0
M  V30 10 C 7.5025 -3.9621 0.0 0
M  V30 11 C 5.9333 -3.7555 0.0 0
M  V30 12 O 2.6233 -2.2718 0.0 0
M  V30 13 N 1.3116 0.0 0.0 0
M  V30 14 C 6.9196 -5.2279 0.0 0
M  V30 15 C 9.0088 -4.1204 0.0 0
M  V30 16 C 4.5015 -3.6166 0.0 0
M  V30 17 C 6.3224 -5.1493 0.0 0
M  V30 18 C 0.0 -0.7572 0.0 0
M  V30 19 C 7.2283 -6.5711 0.0 0
M  V30 20 C 9.6249 -5.5041 0.0 0
M  V30 21 C 3.4842 -4.6956 0.0 0
M  V30 22 C 5.5229 -6.3466 0.0 0
M  V30 23 C -1.3116 0.0 0.0 0
M  V30 24 C 0.0 -2.2718 0.0 0
M  V30 25 C 8.7346 -6.7294 0.0 0
M  V30 26 C 4.027 -6.1096 0.0 0
M  V30 27 C -2.6233 -0.7572 0.0 0
M  V30 28 C -1.3116 -3.0291 0.0 0
M  V30 29 O -3.935 0.0 0.0 0
M  V30 30 C -2.6233 -2.2718 0.0 0
M  V30 31 O -1.3116 -4.5437 0.0 0
M  V30 32 C -5.2467 -0.7572 0.0 0
M  V30 33 C 0.0 -5.301 0.0 0
M  V30 END ATOM
M  V30 BEGIN BOND
M  V30 1 2 1 2
M  V30 2 1 2 3
M  V30 3 1 2 4
M  V30 4 1 3 5
M  V30 5 1 3 6
M  V30 6 1 4 7
M  V30 7 2 5 8
M  V30 8 1 6 9
M  V30 9 1 7 10
M  V30 10 1 7 11
M  V30 11 2 9 12
M  V30 12 1 9 13
M  V30 13 2 10 14
M  V30 14 1 10 15
M  V30 15 2 11 16
M  V30 16 1 11 17
M  V30 17 1 13 18
M  V30 18 1 14 19
M  V30 19 2 15 20
M  V30 20 1 16 21
M  V30 21 2 17 22
M  V30 22 2 18 23
M  V30 23 1 18 24
M  V30 24 2 19 25
M  V30 25 2 21 26
M  V30 26 1 23 27
M  V30 27 2 24 28
M  V30 28 1 27 29
M  V30 29 2 27 30
M  V30 30 1 28 31
M  V30 31 1 29 32
M  V30 32 1 31 33
M  V30 33 1 5 7
M  V30 34 1 20 25
M  V30 35 1 22 26
M  V30 36 1 28 30
M  V30 END BOND
M  V30 END CTAB
M  END
>  <Column 1>
60

>  <Column 2>
PandemicResponseBox - Plate A

>  <Column 3>
D09

>  <Column 4>
MMV1578572

>  <Column 5>
10 mM

>  <Column 6>
ANTIBACTERIALS

>  <Column 7>


>  <Column 8>
None

>  <Column 9>
MLS001176525

>  <Column 10>
COc1cc(NC(=O)CN2C(=O)NC(C2=O)(c3ccccc3)c4ccccc4)cc(OC)c1

>  <Column 11>
CHEMBL1523524

>  <Column 12>


>  <Column 13>
445.5

>  <Column 14>
C25 H23 N3 O5

>  <Tox-Glu>
ATCTOX

>  <Column 15>


>  <Column 16>
102 

>  <Column 17>
49 

>  <Column 18>
6 

>  <Column 19>


>  <Tox-Gal>
CTOXGAL

>  <Column 20>


>  <Column 21>
104 

>  <Column 22>
9 

>  <Column 23>
1 

>  <Column 24>


>  <Column 25>


>  <PAMPA>
PAMPA

>  <Column 26>
116

>  <Column 27>


>  <Column 28>


>  <Mouse>
ATMETMOU

>  <Column 29>
>768

>  <Column 30>


$$$$
Compound 62
Actelion Java MolfileCreator 2.0

  0  0  0  0  0  0              0 V3000
M  V30 BEGIN CTAB
M  V30 COUNTS 33 38 0 0 0
M  V30 BEGIN ATOM
M  V30 1 O 6.6156 3.1009 0.0 0
M  V30 2 C 7.2847 2.3577 0.0 0
M  V30 3 N 6.9757 1.4067 0.0 0
M  V30 4 C 8.2628 2.5657 0.0 0
M  V30 5 C 7.6448 0.6635 0.0 0
M  V30 6 C 6.0621 1.0 0.0 0 CFG=2
M  V30 7 N 8.932 1.8225 0.0 0
M  V30 8 N 7.1448 -0.2024 0.0 0
M  V30 9 C 8.623 0.8715 0.0 0
M  V30 10 C 6.1667 0.0054 0.0 0
M  V30 11 C 5.1961 1.5 0.0 0
M  V30 12 C 7.7893 -1.0086 0.0 0
M  V30 13 C 9.1906 0.0094 0.0 0
M  V30 14 N 4.3301 1.0 0.0 0
M  V30 15 O 7.4037 -1.9313 0.0 0
M  V30 16 C 8.7838 -0.9041 0.0 0
M  V30 17 C 3.4641 1.5 0.0 0
M  V30 18 C 4.3301 0.0 0.0 0
M  V30 19 C 2.598 0.9999 0.0 0
M  V30 20 C 3.4641 -0.4999 0.0 0
M  V30 21 C 2.598 0.0 0.0 0
M  V30 22 N 1.732 -0.5 0.0 0
M  V30 23 C 0.866 0.0 0.0 0
M  V30 24 C 0.0 -0.5 0.0 0
M  V30 25 N -0.866 0.0 0.0 0
M  V30 26 C 0.0 -1.4999 0.0 0
M  V30 27 C -1.732 -0.4999 0.0 0
M  V30 28 C -0.866 -1.9999 0.0 0
M  V30 29 C -1.732 -1.4999 0.0 0
M  V30 30 C -0.866 -2.9999 0.0 0
M  V30 31 O -2.598 -1.9999 0.0 0
M  V30 32 C -1.732 -3.4999 0.0 0
M  V30 33 C -2.598 -2.9999 0.0 0
M  V30 END ATOM
M  V30 BEGIN BOND
M  V30 1 2 1 2
M  V30 2 1 2 3
M  V30 3 1 2 4
M  V30 4 1 3 5
M  V30 5 1 6 3
M  V30 6 2 4 7
M  V30 7 1 5 8
M  V30 8 2 5 9
M  V30 9 1 6 10
M  V30 10 1 6 11 CFG=3
M  V30 11 1 8 12
M  V30 12 1 9 13
M  V30 13 1 11 14
M  V30 14 2 12 15
M  V30 15 1 12 16
M  V30 16 1 14 17
M  V30 17 1 14 18
M  V30 18 1 17 19
M  V30 19 1 18 20
M  V30 20 1 19 21
M  V30 21 1 21 22
M  V30 22 1 22 23
M  V30 23 1 23 24
M  V30 24 2 24 25
M  V30 25 1 24 26
M  V30 26 1 25 27
M  V30 27 2 26 28
M  V30 28 2 27 29
M  V30 29 1 28 30
M  V30 30 1 29 31
M  V30 31 1 30 32
M  V30 32 1 31 33
M  V30 33 1 7 9
M  V30 34 1 8 10
M  V30 35 2 13 16
M  V30 36 1 20 21
M  V30 37 1 28 29
M  V30 38 1 32 33
M  V30 END BOND
M  V30 BEGIN COLLECTION
M  V30 MDLV30/STERAC1 ATOMS=(1 6)
M  V30 END COLLECTION
M  V30 END CTAB
M  END
>  <Column 1>
61

>  <Column 2>
PandemicResponseBox - Plate A

>  <Column 3>
E09

>  <Column 4>
MMV1578568

>  <Column 5>
10 mM

>  <Column 6>
ANTIBACTERIALS

>  <Column 7>


>  <Column 8>
None

>  <Column 9>
Gepotidacin

>  <Column 10>
O=C1C=CC2=C3N1CC(CN4CCC(CC4)NCc5cc6CCCOc6cn5)N3C(=O)C=N2

>  <Column 11>
CHEMBL3317856

>  <Column 12>


>  <Column 13>
448.5

>  <Column 14>
C24 H28 N6 O3

>  <Tox-Glu>
ATCTOX

>  <Column 15>


>  <Column 16>
104 

>  <Column 17>
101 

>  <Column 18>
96 

>  <Column 19>


>  <Tox-Gal>
CTOXGAL

>  <Column 20>


>  <Column 21>
106 

>  <Column 22>
105 

>  <Column 23>
103 

>  <Column 24>


>  <Column 25>


>  <PAMPA>
PAMPA

>  <Column 26>
2

>  <Column 27>


>  <Column 28>


>  <Mouse>
ATMETMOU

>  <Column 29>
23

>  <Column 30>
Large variations

$$$$
Compound 63
Actelion Java MolfileCreator 2.0

  0  0  0  0  0  0              0 V3000
M  V30 BEGIN CTAB
M  V30 COUNTS 27 29 0 0 0
M  V30 BEGIN ATOM
M  V30 1 O 5.1961 1.5 0.0 0
M  V30 2 C 4.3301 1.0 0.0 0
M  V30 3 C 5.1961 2.5 0.0 0
M  V30 4 C 3.4641 1.5 0.0 0
M  V30 5 C 4.3301 0.0 0.0 0
M  V30 6 O 3.4641 2.5 0.0 0
M  V30 7 C 2.598 0.9999 0.0 0
M  V30 8 O 5.1961 -0.4999 0.0 0
M  V30 9 C 3.4641 -0.4999 0.0 0
M  V30 10 C 2.598 3.0 0.0 0
M  V30 11 C 2.598 0.0 0.0 0
M  V30 12 C 6.0621 0.0 0.0 0
M  V30 13 N 1.732 -0.5 0.0 0
M  V30 14 C 0.866 0.0 0.0 0
M  V30 15 C 0.0 -0.5 0.0 0
M  V30 16 C -0.866 0.0 0.0 0
M  V30 17 C 0.0 -1.4999 0.0 0
M  V30 18 C -1.732 -0.4999 0.0 0
M  V30 19 C -0.866 1.0 0.0 0
M  V30 20 C -0.866 -1.9999 0.0 0
M  V30 21 C -2.598 0.0 0.0 0
M  V30 22 C -1.732 -1.4999 0.0 0
M  V30 23 N -3.4641 -0.4999 0.0 0
M  V30 24 N -2.598 1.0 0.0 0
M  V30 25 N -2.598 -1.9999 0.0 0
M  V30 26 C -3.4641 -1.4999 0.0 0
M  V30 27 N -4.3301 -1.9999 0.0 0
M  V30 END ATOM
M  V30 BEGIN BOND
M  V30 1 1 1 2
M  V30 2 1 1 3
M  V30 3 2 2 4
M  V30 4 1 2 5
M  V30 5 1 4 6
M  V30 6 1 4 7
M  V30 7 1 5 8
M  V30 8 2 5 9
M  V30 9 1 6 10
M  V30 10 2 7 11
M  V30 11 1 8 12
M  V30 12 1 11 13
M  V30 13 1 13 14
M  V30 14 1 14 15
M  V30 15 2 15 16
M  V30 16 1 15 17
M  V30 17 1 16 18
M  V30 18 1 16 19
M  V30 19 2 17 20
M  V30 20 2 18 21
M  V30 21 1 18 22
M  V30 22 1 21 23
M  V30 23 1 21 24
M  V30 24 2 22 25
M  V30 25 2 23 26
M  V30 26 1 26 27
M  V30 27 1 9 11
M  V30 28 1 20 22
M  V30 29 1 25 26
M  V30 END BOND
M  V30 END CTAB
M  END
>  <Column 1>
62

>  <Column 2>
PandemicResponseBox - Plate A

>  <Column 3>
F09

>  <Column 4>
MMV1580173

>  <Column 5>
10 mM

>  <Column 6>
ANTIBACTERIALS

>  <Column 7>


>  <Column 8>
None

>  <Column 9>
Trimetrexate

>  <Column 10>
O(C3=C(OC)C=C(NCC2=C(C1=C(N=C(N)N=C1C=C2)N)C)C=C3OC)C

>  <Column 11>
CHEMBL119

>  <Column 12>


>  <Column 13>
369.4

>  <Column 14>
C19 H23 N5 O3

>  <Tox-Glu>
ATCTOX

>  <Column 15>


>  <Column 16>
52 

>  <Column 17>
42 

>  <Column 18>
4 

>  <Column 19>


>  <Tox-Gal>
CTOXGAL

>  <Column 20>


>  <Column 21>
79 

>  <Column 22>
69 

>  <Column 23>
9 

>  <Column 24>


>  <Column 25>


>  <PAMPA>
PAMPA

>  <Column 26>
5

>  <Column 27>


>  <Column 28>


>  <Mouse>
ATMETMOU

>  <Column 29>
61

>  <Column 30>


$$$$
Compound 64
Actelion Java MolfileCreator 2.0

  0  0  0  0  0  0              0 V3000
M  V30 BEGIN CTAB
M  V30 COUNTS 38 41 0 0 0
M  V30 BEGIN ATOM
M  V30 1 O 9.0441 0.5304 0.0 0
M  V30 2 C 8.0659 0.3225 0.0 0
M  V30 3 N 7.3968 1.0657 0.0 0
M  V30 4 N 7.7569 -0.6284 0.0 0
M  V30 5 C 6.4187 0.8577 0.0 0
M  V30 6 C 7.7058 2.0167 0.0 0
M  V30 7 C 6.7788 -0.8364 0.0 0
M  V30 8 C 8.4261 -1.3716 0.0 0
M  V30 9 O 5.7495 1.6009 0.0 0
M  V30 10 C 6.1096 -0.0932 0.0 0
M  V30 11 C 8.684 2.2246 0.0 0
M  V30 12 N 6.2788 -1.7024 0.0 0
M  V30 13 C 8.117 -2.3226 0.0 0
M  V30 14 N 5.1961 -0.5 0.0 0
M  V30 15 C 8.993 3.1757 0.0 0
M  V30 16 C 5.3006 -1.4945 0.0 0
M  V30 17 C 8.7862 -3.0658 0.0 0
M  V30 18 C 4.3301 0.0 0.0 0
M  V30 19 C 4.5575 -2.1636 0.0 0
M  V30 20 C 8.4772 -4.0168 0.0 0
M  V30 21 C 9.7643 -2.8579 0.0 0
M  V30 22 C 3.4641 -0.5 0.0 0
M  V30 23 C 4.7654 -3.1418 0.0 0
M  V30 24 C 9.1463 -4.76 0.0 0
M  V30 25 C 10.4334 -3.601 0.0 0
M  V30 26 N 2.598 0.0 0.0 0
M  V30 27 C 4.0223 -3.8109 0.0 0
M  V30 28 C 5.7165 -3.4508 0.0 0
M  V30 29 C 10.1244 -4.5521 0.0 0
M  V30 30 C 1.732 -0.5 0.0 0
M  V30 31 C 2.598 1.0 0.0 0
M  V30 32 C 4.2302 -4.789 0.0 0
M  V30 33 C 5.9244 -4.4289 0.0 0
M  V30 34 N 10.7936 -5.2952 0.0 0
M  V30 35 C 0.866 0.0 0.0 0
M  V30 36 C 1.732 1.5 0.0 0
M  V30 37 C 5.1812 -5.098 0.0 0
M  V30 38 O 0.0 -0.5 0.0 0
M  V30 END ATOM
M  V30 BEGIN BOND
M  V30 1 2 1 2
M  V30 2 1 2 3
M  V30 3 1 2 4
M  V30 4 1 3 5
M  V30 5 1 3 6
M  V30 6 1 4 7
M  V30 7 1 4 8
M  V30 8 2 5 9
M  V30 9 1 5 10
M  V30 10 1 6 11
M  V30 11 1 7 12
M  V30 12 1 8 13
M  V30 13 1 10 14
M  V30 14 1 11 15
M  V30 15 2 12 16
M  V30 16 1 13 17
M  V30 17 1 14 18
M  V30 18 1 16 19
M  V30 19 2 17 20
M  V30 20 1 17 21
M  V30 21 1 18 22
M  V30 22 1 19 23
M  V30 23 1 20 24
M  V30 24 2 21 25
M  V30 25 1 22 26
M  V30 26 2 23 27
M  V30 27 1 23 28
M  V30 28 2 24 29
M  V30 29 1 26 30
M  V30 30 1 26 31
M  V30 31 1 27 32
M  V30 32 2 28 33
M  V30 33 1 29 34
M  V30 34 1 30 35
M  V30 35 1 31 36
M  V30 36 2 32 37
M  V30 37 1 35 38
M  V30 38 2 7 10
M  V30 39 1 14 16
M  V30 40 1 25 29
M  V30 41 1 33 37
M  V30 END BOND
M  V30 END CTAB
M  END
>  <Column 1>
63

>  <Column 2>
PandemicResponseBox - Plate A

>  <Column 3>
G09

>  <Column 4>
MMV1634403

>  <Column 5>
10 mM

>  <Column 6>
ANTIBACTERIALS

>  <Column 7>


>  <Column 8>
None

>  <Column 9>


>  <Column 10>
O=[C]1[N]([C](=O)C4=C([N]1CCC2=CC=C(N)C=C2)N=C(CC3=CC=CC=C3)[N]4CCN(CCO)CC)CCC

>  <Column 11>
NA

>  <Column 12>
EP�2036562

>  <Column 13>
518.7

>  <Column 14>
C29 H38 N6 O3

>  <Tox-Glu>
ATCTOX

>  <Column 15>


>  <Column 16>
100 

>  <Column 17>
96 

>  <Column 18>
89 

>  <Column 19>


>  <Tox-Gal>
CTOXGAL

>  <Column 20>


>  <Column 21>
95 

>  <Column 22>
95 

>  <Column 23>
95 

>  <Column 24>


>  <Column 25>


>  <PAMPA>
PAMPA

>  <Column 26>
331

>  <Column 27>


>  <Column 28>


>  <Mouse>
ATMETMOU

>  <Column 29>
381

>  <Column 30>


$$$$
Compound 65
Actelion Java MolfileCreator 2.0

  0  0  0  0  0  0              0 V3000
M  V30 BEGIN CTAB
M  V30 COUNTS 29 31 0 0 0
M  V30 BEGIN ATOM
M  V30 1 O 2.598 1.0 0.0 0
M  V30 2 C 2.598 0.0 0.0 0
M  V30 3 O 3.4641 -0.5 0.0 0
M  V30 4 N 1.732 -0.5 0.0 0
M  V30 5 C 4.3301 0.0 0.0 0
M  V30 6 C 0.866 0.0 0.0 0
M  V30 7 C 0.0 -0.5 0.0 0
M  V30 8 C -0.866 0.0 0.0 0
M  V30 9 C 0.0 -1.4999 0.0 0
M  V30 10 C -1.732 -0.4999 0.0 0
M  V30 11 C -0.866 1.0 0.0 0
M  V30 12 C -0.866 -1.9999 0.0 0
M  V30 13 C -1.732 -1.4999 0.0 0
M  V30 14 C -2.598 0.0 0.0 0
M  V30 15 N -1.732 1.5 0.0 0
M  V30 16 C -2.598 -1.9999 0.0 0
M  V30 17 C -2.598 1.0 0.0 0
M  V30 18 C -3.4641 -1.4999 0.0 0
M  V30 19 C -2.598 -2.9999 0.0 0
M  V30 20 N -3.4641 1.5 0.0 0
M  V30 21 C -4.3301 -1.9999 0.0 0
M  V30 22 C -3.4641 -3.4999 0.0 0
M  V30 23 C -3.4641 2.5 0.0 0
M  V30 24 N -4.3301 -2.9999 0.0 0
M  V30 25 C -5.1961 -1.4999 0.0 0
M  V30 26 O -2.598 3.0 0.0 0
M  V30 27 N -4.3301 3.0 0.0 0
M  V30 28 C -4.3301 4.0 0.0 0
M  V30 29 C -5.1961 4.5 0.0 0
M  V30 END ATOM
M  V30 BEGIN BOND
M  V30 1 2 1 2
M  V30 2 1 2 3
M  V30 3 1 2 4
M  V30 4 1 3 5
M  V30 5 1 4 6
M  V30 6 1 6 7
M  V30 7 1 7 8
M  V30 8 2 7 9
M  V30 9 1 8 10
M  V30 10 2 8 11
M  V30 11 1 9 12
M  V30 12 1 10 13
M  V30 13 2 10 14
M  V30 14 1 11 15
M  V30 15 1 13 16
M  V30 16 1 14 17
M  V30 17 2 16 18
M  V30 18 1 16 19
M  V30 19 1 17 20
M  V30 20 1 18 21
M  V30 21 2 19 22
M  V30 22 1 20 23
M  V30 23 2 21 24
M  V30 24 1 21 25
M  V30 25 2 23 26
M  V30 26 1 23 27
M  V30 27 1 27 28
M  V30 28 1 28 29
M  V30 29 2 12 13
M  V30 30 2 15 17
M  V30 31 1 22 24
M  V30 END BOND
M  V30 END CTAB
M  END
>  <Column 1>
64

>  <Column 2>
PandemicResponseBox - Plate A

>  <Column 3>
H09

>  <Column 4>
MMV1634390

>  <Column 5>
10 mM

>  <Column 6>
ANTIBACTERIALS

>  <Column 7>


>  <Column 8>
None

>  <Column 9>


>  <Column 10>
O=C(OC)NCC1=CC=C(C2=CC(=NC=C12)NC(=O)NCC)C3=CC(=NC=C3)C

>  <Column 11>
NA

>  <Column 12>
Journal of Medicinal Chemistry�(2017),�60(9),�3755-3775,WO 2012131588

>  <Column 13>
393.4

>  <Column 14>
C21 H23 N5 O3

>  <Tox-Glu>
ATCTOX

>  <Column 15>


>  <Column 16>
96 

>  <Column 17>
87 

>  <Column 18>
68 

>  <Column 19>


>  <Tox-Gal>
CTOXGAL

>  <Column 20>


>  <Column 21>
99 

>  <Column 22>
97 

>  <Column 23>
93 

>  <Column 24>


>  <Column 25>


>  <PAMPA>
PAMPA

>  <Column 26>
182

>  <Column 27>


>  <Column 28>


>  <Mouse>
ATMETMOU

>  <Column 29>
-1

>  <Column 30>


$$$$
Compound 66
Actelion Java MolfileCreator 2.0

  0  0  0  0  0  0              0 V3000
M  V30 BEGIN CTAB
M  V30 COUNTS 40 43 0 0 0
M  V30 BEGIN ATOM
M  V30 1 O 6.0621 -3.0 0.0 0
M  V30 2 C 6.9282 -3.5 0.0 0
M  V30 3 O 6.9282 -4.5 0.0 0
M  V30 4 N 7.7942 -3.0 0.0 0
M  V30 5 C 6.0621 -5.0 0.0 0
M  V30 6 C 7.7942 -2.0 0.0 0
M  V30 7 C 6.0621 -6.0 0.0 0
M  V30 8 N 8.6602 -1.5 0.0 0
M  V30 9 C 6.9282 -1.4999 0.0 0
M  V30 10 C 8.6602 -0.5 0.0 0
M  V30 11 C 6.9282 -0.5 0.0 0
M  V30 12 N 9.5262 0.0 0.0 0
M  V30 13 C 7.7942 0.0 0.0 0
M  V30 14 N 6.0621 0.0 0.0 0
M  V30 15 C 9.5262 0.9999 0.0 0
M  V30 16 N 7.7942 0.9999 0.0 0
M  V30 17 C 5.1961 -0.5 0.0 0
M  V30 18 C 8.6602 1.4999 0.0 0
M  V30 19 C 10.3923 1.4999 0.0 0
M  V30 20 C 4.3301 0.0 0.0 0
M  V30 21 C 5.1961 -1.4999 0.0 0
M  V30 22 C 8.6602 2.4999 0.0 0
M  V30 23 C 11.2583 0.9999 0.0 0
M  V30 24 C 10.3923 2.4999 0.0 0
M  V30 25 C 3.4641 -0.5 0.0 0
M  V30 26 C 9.5262 2.9999 0.0 0
M  V30 27 C 7.7942 3.0 0.0 0
M  V30 28 C 12.1243 1.4999 0.0 0
M  V30 29 C 11.2583 2.9999 0.0 0
M  V30 30 C 2.598 0.0 0.0 0
M  V30 31 C 3.4641 -1.5 0.0 0
M  V30 32 C 9.5262 3.9999 0.0 0
M  V30 33 C 7.7942 4.0 0.0 0
M  V30 34 C 12.1243 2.4999 0.0 0
M  V30 35 N 1.732 -0.5 0.0 0
M  V30 36 C 8.6602 4.4999 0.0 0
M  V30 37 C 1.732 -1.5 0.0 0
M  V30 38 C 0.866 0.0 0.0 0
M  V30 39 C 2.598 -1.9999 0.0 0
M  V30 40 C 0.0 -0.5 0.0 0
M  V30 END ATOM
M  V30 BEGIN BOND
M  V30 1 2 1 2
M  V30 2 1 2 3
M  V30 3 1 2 4
M  V30 4 1 3 5
M  V30 5 1 4 6
M  V30 6 1 5 7
M  V30 7 2 6 8
M  V30 8 1 6 9
M  V30 9 1 8 10
M  V30 10 2 9 11
M  V30 11 2 10 12
M  V30 12 1 10 13
M  V30 13 1 11 14
M  V30 14 1 12 15
M  V30 15 2 13 16
M  V30 16 1 14 17
M  V30 17 2 15 18
M  V30 18 1 15 19
M  V30 19 1 17 20
M  V30 20 1 17 21
M  V30 21 1 18 22
M  V30 22 2 19 23
M  V30 23 1 19 24
M  V30 24 1 20 25
M  V30 25 2 22 26
M  V30 26 1 22 27
M  V30 27 1 23 28
M  V30 28 2 24 29
M  V30 29 1 25 30
M  V30 30 1 25 31
M  V30 31 1 26 32
M  V30 32 2 27 33
M  V30 33 2 28 34
M  V30 34 1 30 35
M  V30 35 2 32 36
M  V30 36 1 35 37
M  V30 37 1 35 38
M  V30 38 1 37 39
M  V30 39 1 38 40
M  V30 40 1 11 13
M  V30 41 1 16 18
M  V30 42 1 29 34
M  V30 43 1 33 36
M  V30 END BOND
M  V30 END CTAB
M  END
>  <Column 1>
65

>  <Column 2>
PandemicResponseBox - Plate A

>  <Column 3>
A10

>  <Column 4>
MMV1633967

>  <Column 5>
10 mM

>  <Column 6>
ANTIBACTERIALS

>  <Column 7>


>  <Column 8>
None

>  <Column 9>


>  <Column 10>
O=C(OCC)NC3=NC2=NC(=C(C1=CC=CC=C1)N=C2C(=C3)NC(CC(CN(CC)CC)C)C)C4=CC=CC=C4

>  <Column 11>
NA

>  <Column 12>
Journal of Antimicrobial Chemotherapy�(2002),�50(1),�111-114

>  <Column 13>
540.7

>  <Column 14>
C32 H40 N6 O2

>  <Tox-Glu>
ATCTOX

>  <Column 15>


>  <Column 16>
10 

>  <Column 17>
0 

>  <Column 18>
1 

>  <Column 19>


>  <Tox-Gal>
CTOXGAL

>  <Column 20>


>  <Column 21>
65 

>  <Column 22>
0 

>  <Column 23>
1 

>  <Column 24>


>  <Column 25>


>  <PAMPA>
PAMPA

>  <Column 26>
265

>  <Column 27>


>  <Column 28>


>  <Mouse>
ATMETMOU

>  <Column 29>
119

>  <Column 30>


$$$$
Compound 67
Actelion Java MolfileCreator 2.0

  0  0  0  0  0  0              0 V3000
M  V30 BEGIN CTAB
M  V30 COUNTS 27 29 0 0 0
M  V30 BEGIN ATOM
M  V30 1 O 2.598 1.0 0.0 0
M  V30 2 C 2.598 0.0 0.0 0
M  V30 3 N 3.4641 -0.5 0.0 0
M  V30 4 N 1.732 -0.5 0.0 0
M  V30 5 C 4.3301 0.0 0.0 0
M  V30 6 C 0.866 0.0 0.0 0
M  V30 7 N 5.1961 -0.4999 0.0 0
M  V30 8 C 4.3301 0.9999 0.0 0
M  V30 9 C 0.0 -0.5 0.0 0
M  V30 10 C 6.0621 0.0 0.0 0
M  V30 11 C 5.1961 1.4999 0.0 0
M  V30 12 C 6.0621 1.0 0.0 0
M  V30 13 C 5.1961 2.4999 0.0 0
M  V30 14 C 6.9282 1.5 0.0 0
M  V30 15 C 6.0621 2.9999 0.0 0
M  V30 16 C 4.3301 2.9999 0.0 0
M  V30 17 C 7.7942 1.0 0.0 0
M  V30 18 C 6.9282 2.5 0.0 0
M  V30 19 C 6.0621 3.9999 0.0 0
M  V30 20 C 4.3301 3.9999 0.0 0
M  V30 21 N 8.6602 1.4999 0.0 0
M  V30 22 C 7.7942 3.0 0.0 0
M  V30 23 C 5.1961 4.4999 0.0 0
M  V30 24 C 8.6602 2.5 0.0 0
M  V30 25 C 7.7942 4.0 0.0 0
M  V30 26 O 8.6602 4.5 0.0 0
M  V30 27 O 6.9282 4.5 0.0 0
M  V30 END ATOM
M  V30 BEGIN BOND
M  V30 1 2 1 2
M  V30 2 1 2 3
M  V30 3 1 2 4
M  V30 4 1 3 5
M  V30 5 1 4 6
M  V30 6 2 5 7
M  V30 7 1 5 8
M  V30 8 1 6 9
M  V30 9 1 7 10
M  V30 10 2 8 11
M  V30 11 2 10 12
M  V30 12 1 11 13
M  V30 13 1 12 14
M  V30 14 2 13 15
M  V30 15 1 13 16
M  V30 16 2 14 17
M  V30 17 1 14 18
M  V30 18 1 15 19
M  V30 19 2 16 20
M  V30 20 1 17 21
M  V30 21 2 18 22
M  V30 22 2 19 23
M  V30 23 2 21 24
M  V30 24 1 22 25
M  V30 25 2 25 26
M  V30 26 1 25 27
M  V30 27 1 11 12
M  V30 28 1 20 23
M  V30 29 1 22 24
M  V30 END BOND
M  V30 END CTAB
M  END
>  <Column 1>
66

>  <Column 2>
PandemicResponseBox - Plate A

>  <Column 3>
B10

>  <Column 4>
MMV1593534

>  <Column 5>
10 mM

>  <Column 6>
ANTIBACTERIALS

>  <Column 7>


>  <Column 8>
None

>  <Column 9>


>  <Column 10>
CCNC(=O)Nc1cc(c2ccccc2)c(cn1)c3cncc(c3)C(=O)O

>  <Column 11>
CHEMBL3235083

>  <Column 12>


>  <Column 13>
362.4

>  <Column 14>
C20 H18 N4 O3

>  <Tox-Glu>
ATCTOX

>  <Column 15>


>  <Column 16>
105 

>  <Column 17>
102 

>  <Column 18>
105 

>  <Column 19>


>  <Tox-Gal>
CTOXGAL

>  <Column 20>


>  <Column 21>
105 

>  <Column 22>
106 

>  <Column 23>
112 

>  <Column 24>


>  <Column 25>


>  <PAMPA>
PAMPA

>  <Column 26>
<10

>  <Column 27>


>  <Column 28>


>  <Mouse>
ATMETMOU

>  <Column 29>
6

>  <Column 30>
Large variations

$$$$
Compound 68
Actelion Java MolfileCreator 2.0

  0  0  0  0  0  0              0 V3000
M  V30 BEGIN CTAB
M  V30 COUNTS 26 29 0 0 0
M  V30 BEGIN ATOM
M  V30 1 S 2.598 -0.75 0.0 0
M  V30 2 C 3.8971 0.0 0.0 0
M  V30 3 C 1.299 0.0 0.0 0
M  V30 4 N 5.1961 -0.7499 0.0 0
M  V30 5 N 3.8971 1.4999 0.0 0
M  V30 6 C 0.0 -0.75 0.0 0
M  V30 7 C 6.4951 0.0 0.0 0
M  V30 8 C 5.1961 2.25 0.0 0
M  V30 9 N -1.3703 -0.1398 0.0 0
M  V30 10 N -0.1567 -2.2417 0.0 0
M  V30 11 N 7.7942 -0.7499 0.0 0
M  V30 12 C 6.4951 1.5 0.0 0
M  V30 13 C 5.1961 3.75 0.0 0
M  V30 14 C -2.374 -1.2546 0.0 0
M  V30 15 C -1.624 -2.5536 0.0 0
M  V30 16 C 9.0932 0.0 0.0 0
M  V30 17 C -3.874 -1.2546 0.0 0
M  V30 18 C -2.374 -3.8526 0.0 0
M  V30 19 C 10.3923 -0.7499 0.0 0
M  V30 20 C 9.0932 1.5 0.0 0
M  V30 21 C -4.624 -2.5536 0.0 0
M  V30 22 C -3.874 -3.8526 0.0 0
M  V30 23 C 11.6913 0.0 0.0 0
M  V30 24 C 10.3923 2.25 0.0 0
M  V30 25 C 11.6913 1.5 0.0 0
M  V30 26 F 12.9903 2.25 0.0 0
M  V30 END ATOM
M  V30 BEGIN BOND
M  V30 1 1 1 2
M  V30 2 1 1 3
M  V30 3 2 2 4
M  V30 4 1 2 5
M  V30 5 1 3 6
M  V30 6 1 4 7
M  V30 7 2 5 8
M  V30 8 2 6 9
M  V30 9 1 6 10
M  V30 10 1 7 11
M  V30 11 2 7 12
M  V30 12 1 8 13
M  V30 13 1 9 14
M  V30 14 1 10 15
M  V30 15 1 11 16
M  V30 16 1 14 17
M  V30 17 1 15 18
M  V30 18 2 16 19
M  V30 19 1 16 20
M  V30 20 2 17 21
M  V30 21 2 18 22
M  V30 22 1 19 23
M  V30 23 2 20 24
M  V30 24 2 23 25
M  V30 25 1 25 26
M  V30 26 1 8 12
M  V30 27 2 14 15
M  V30 28 1 21 22
M  V30 29 1 24 25
M  V30 END BOND
M  V30 END CTAB
M  END
>  <Column 1>
67

>  <Column 2>
PandemicResponseBox - Plate A

>  <Column 3>
C10

>  <Column 4>
MMV1582498

>  <Column 5>
10 mM

>  <Column 6>
ANTIBACTERIALS

>  <Column 7>


>  <Column 8>
None

>  <Column 9>


>  <Column 10>
Cc1cc(Nc2ccc(F)cc2)nc(SCc3nc4ccccc4[nH]3)n1

>  <Column 11>
CHEMBL3289349

>  <Column 12>
�Bioorganic & Medicinal Chemistry Letters�(2014),�24(12),�2741-2743

>  <Column 13>
365.4

>  <Column 14>
C19 H16 F N5 S

>  <Tox-Glu>
ATCTOX

>  <Column 15>


>  <Column 16>
108 

>  <Column 17>
94 

>  <Column 18>
2 

>  <Column 19>


>  <Tox-Gal>
CTOXGAL

>  <Column 20>


>  <Column 21>
102 

>  <Column 22>
60 

>  <Column 23>
1 

>  <Column 24>


>  <Column 25>


>  <PAMPA>
PAMPA

>  <Column 26>
272

>  <Column 27>


>  <Column 28>


>  <Mouse>
ATMETMOU

>  <Column 29>
644

>  <Column 30>


$$$$
Compound 69
Actelion Java MolfileCreator 2.0

  0  0  0  0  0  0              0 V3000
M  V30 BEGIN CTAB
M  V30 COUNTS 26 28 0 0 0
M  V30 BEGIN ATOM
M  V30 1 S 6.4952 0.0 0.0 0
M  V30 2 O 7.2452 1.299 0.0 0
M  V30 3 O 5.7451 1.299 0.0 0
M  V30 4 N 5.1961 -0.75 0.0 0
M  V30 5 C 7.7942 -0.75 0.0 0
M  V30 6 C 3.8971 0.0 0.0 0
M  V30 7 C 7.7942 -2.25 0.0 0
M  V30 8 C 9.0932 0.0 0.0 0
M  V30 9 O 3.8971 1.5 0.0 0
M  V30 10 C 2.598 -0.75 0.0 0 CFG=1
M  V30 11 C 9.0932 -3.0 0.0 0
M  V30 12 C 10.3923 -0.75 0.0 0
M  V30 13 N 2.598 -2.25 0.0 0
M  V30 14 C 1.299 0.0 0.0 0 CFG=2
M  V30 15 C 9.0932 -4.5 0.0 0
M  V30 16 C 10.3923 -2.25 0.0 0
M  V30 17 O 1.299 1.5 0.0 0
M  V30 18 C 0.0 -0.75 0.0 0
M  V30 19 C 10.3923 -5.25 0.0 0
M  V30 20 C 7.7942 -5.25 0.0 0
M  V30 21 C 10.3923 -6.75 0.0 0
M  V30 22 C 7.7942 -6.75 0.0 0
M  V30 23 C 9.0932 -7.5 0.0 0
M  V30 24 C 11.507 -7.7537 0.0 0
M  V30 25 N 9.4051 -8.9672 0.0 0
M  V30 26 N 10.8969 -9.124 0.0 0
M  V30 END ATOM
M  V30 BEGIN BOND
M  V30 1 2 1 2
M  V30 2 2 1 3
M  V30 3 1 1 4
M  V30 4 1 1 5
M  V30 5 1 4 6
M  V30 6 2 5 7
M  V30 7 1 5 8
M  V30 8 2 6 9
M  V30 9 1 10 6
M  V30 10 1 7 11
M  V30 11 2 8 12
M  V30 12 1 10 13 CFG=1
M  V30 13 1 14 10
M  V30 14 1 11 15
M  V30 15 2 11 16
M  V30 16 1 14 17 CFG=1
M  V30 17 1 14 18
M  V30 18 2 15 19
M  V30 19 1 15 20
M  V30 20 1 19 21
M  V30 21 2 20 22
M  V30 22 2 21 23
M  V30 23 1 21 24
M  V30 24 1 23 25
M  V30 25 2 24 26
M  V30 26 1 12 16
M  V30 27 1 22 23
M  V30 28 1 25 26
M  V30 END BOND
M  V30 BEGIN COLLECTION
M  V30 MDLV30/STEABS ATOMS=(2 10 14)
M  V30 END COLLECTION
M  V30 END CTAB
M  END
>  <Column 1>
68

>  <Column 2>
PandemicResponseBox - Plate A

>  <Column 3>
D10

>  <Column 4>
MMV1582494

>  <Column 5>
10 mM

>  <Column 6>
ANTIBACTERIALS

>  <Column 7>
2

>  <Column 8>
Hydrochloric acid

>  <Column 9>


>  <Column 10>
C[C@@H](O)[C@H](N)C(=O)NS(=O)(=O)c1cccc(c1)c2ccc3[nH]ncc3c2

>  <Column 11>
CHEMBL2316961

>  <Column 12>


>  <Column 13>
447.3

>  <Column 14>
C17 H18 N4 O4 S

>  <Tox-Glu>
ATCTOX

>  <Column 15>


>  <Column 16>
103 

>  <Column 17>
101 

>  <Column 18>
102 

>  <Column 19>


>  <Tox-Gal>
CTOXGAL

>  <Column 20>


>  <Column 21>
104 

>  <Column 22>
104 

>  <Column 23>
108 

>  <Column 24>


>  <Column 25>


>  <PAMPA>
PAMPA

>  <Column 26>
<8

>  <Column 27>


>  <Column 28>


>  <Mouse>
ATMETMOU

>  <Column 29>
34

>  <Column 30>


$$$$
Compound 70
Actelion Java MolfileCreator 2.0

  0  0  0  0  0  0              0 V3000
M  V30 BEGIN CTAB
M  V30 COUNTS 20 21 0 0 0
M  V30 BEGIN ATOM
M  V30 1 O 2.598 0.0 0.0 0
M  V30 2 C 3.4641 -0.5 0.0 0
M  V30 3 N 4.3301 0.0 0.0 0
M  V30 4 C 3.4641 -1.5 0.0 0
M  V30 5 C 5.1961 -0.4999 0.0 0 CFG=2
M  V30 6 C 2.598 -1.9999 0.0 0
M  V30 7 C 4.3301 -2.0 0.0 0
M  V30 8 C 5.1961 -1.5 0.0 0
M  V30 9 B 6.0621 0.0 0.0 0
M  V30 10 C 1.732 -1.4999 0.0 0
M  V30 11 C 2.598 -2.9999 0.0 0
M  V30 12 C 4.3301 -3.0 0.0 0
M  V30 13 O 6.0621 1.0 0.0 0
M  V30 14 O 6.9282 -0.5 0.0 0
M  V30 15 C 1.732 -0.4999 0.0 0
M  V30 16 C 0.866 -1.9999 0.0 0
M  V30 17 C 3.4641 -3.5 0.0 0
M  V30 18 C 0.866 0.0 0.0 0
M  V30 19 C 0.0 -1.4999 0.0 0
M  V30 20 C 0.0 -0.4999 0.0 0
M  V30 END ATOM
M  V30 BEGIN BOND
M  V30 1 2 1 2
M  V30 2 1 2 3
M  V30 3 1 2 4
M  V30 4 1 5 3 CFG=1
M  V30 5 2 4 6
M  V30 6 1 4 7
M  V30 7 1 5 8
M  V30 8 1 5 9
M  V30 9 1 6 10
M  V30 10 1 6 11
M  V30 11 2 7 12
M  V30 12 1 9 13
M  V30 13 1 9 14
M  V30 14 2 10 15
M  V30 15 1 10 16
M  V30 16 2 11 17
M  V30 17 1 15 18
M  V30 18 2 16 19
M  V30 19 2 18 20
M  V30 20 1 12 17
M  V30 21 1 19 20
M  V30 END BOND
M  V30 BEGIN COLLECTION
M  V30 MDLV30/STEABS ATOMS=(1 5)
M  V30 END COLLECTION
M  V30 END CTAB
M  END
>  <Column 1>
69

>  <Column 2>
PandemicResponseBox - Plate A

>  <Column 3>
E10

>  <Column 4>
MMV1582493

>  <Column 5>
10 mM

>  <Column 6>
ANTIBACTERIALS

>  <Column 7>


>  <Column 8>
None

>  <Column 9>


>  <Column 10>
C[C@@H](NC(=O)c1ccccc1c2ccccc2)B(O)O

>  <Column 11>
CHEMBL1672821

>  <Column 12>


>  <Column 13>
269.1

>  <Column 14>
C15 H16 B N O3

>  <Tox-Glu>
ATCTOX

>  <Column 15>


>  <Column 16>
104 

>  <Column 17>
100 

>  <Column 18>
101 

>  <Column 19>


>  <Tox-Gal>
CTOXGAL

>  <Column 20>


>  <Column 21>
104 

>  <Column 22>
102 

>  <Column 23>
107 

>  <Column 24>


>  <Column 25>


>  <PAMPA>
PAMPA

>  <Column 26>
undetected

>  <Column 27>
low sensitivity

>  <Column 28>


>  <Mouse>
ATMETMOU

>  <Column 29>


>  <Column 30>
Not determined; Low sensitivity

$$$$
Compound 71
Actelion Java MolfileCreator 2.0

  0  0  0  0  0  0              0 V3000
M  V30 BEGIN CTAB
M  V30 COUNTS 33 35 0 0 0
M  V30 BEGIN ATOM
M  V30 1 F 10.0262 -4.1339 0.0 0
M  V30 2 C 9.5262 -5.0 0.0 0
M  V30 3 F 10.3923 -5.5 0.0 0
M  V30 4 F 9.0262 -5.866 0.0 0
M  V30 5 C 8.6602 -4.5 0.0 0
M  V30 6 C 8.6602 -3.5 0.0 0
M  V30 7 C 7.7942 -5.0 0.0 0
M  V30 8 C 7.7942 -3.0 0.0 0
M  V30 9 C 6.9282 -4.4999 0.0 0
M  V30 10 O 7.7942 -2.0 0.0 0
M  V30 11 C 6.9282 -3.5 0.0 0
M  V30 12 C 6.9282 -1.5 0.0 0
M  V30 13 C 6.9282 -0.5 0.0 0
M  V30 14 C 6.0621 -2.0 0.0 0
M  V30 15 C 6.0621 0.0 0.0 0
M  V30 16 C 7.7942 0.0 0.0 0
M  V30 17 O 6.0621 -3.0 0.0 0
M  V30 18 C 5.1961 -1.5 0.0 0
M  V30 19 N 6.0621 0.9999 0.0 0
M  V30 20 C 5.1961 -0.5 0.0 0
M  V30 21 C 7.7942 0.9999 0.0 0
M  V30 22 C 8.6602 -0.5 0.0 0
M  V30 23 C 5.1961 -3.4999 0.0 0
M  V30 24 C 6.9282 1.4999 0.0 0
M  V30 25 N 4.3301 0.0 0.0 0
M  V30 26 O 6.9282 2.5 0.0 0
M  V30 27 C 3.4641 -0.5 0.0 0 CFG=2
M  V30 28 C 6.0621 3.0 0.0 0
M  V30 29 C 2.598 0.0 0.0 0
M  V30 30 C 3.4641 -1.5 0.0 0
M  V30 31 C 1.732 -0.5 0.0 0
M  V30 32 C 0.866 0.0 0.0 0
M  V30 33 N 0.0 -0.5 0.0 0
M  V30 END ATOM
M  V30 BEGIN BOND
M  V30 1 1 1 2
M  V30 2 1 2 3
M  V30 3 1 2 4
M  V30 4 1 2 5
M  V30 5 2 5 6
M  V30 6 1 5 7
M  V30 7 1 6 8
M  V30 8 2 7 9
M  V30 9 1 8 10
M  V30 10 2 8 11
M  V30 11 1 10 12
M  V30 12 1 12 13
M  V30 13 2 12 14
M  V30 14 1 13 15
M  V30 15 2 13 16
M  V30 16 1 14 17
M  V30 17 1 14 18
M  V30 18 2 15 19
M  V30 19 1 15 20
M  V30 20 1 16 21
M  V30 21 1 16 22
M  V30 22 1 17 23
M  V30 23 1 19 24
M  V30 24 1 20 25
M  V30 25 1 24 26
M  V30 26 1 27 25 CFG=1
M  V30 27 1 26 28
M  V30 28 1 27 29
M  V30 29 1 27 30
M  V30 30 1 29 31
M  V30 31 1 31 32
M  V30 32 1 32 33
M  V30 33 1 9 11
M  V30 34 2 18 20
M  V30 35 2 21 24
M  V30 END BOND
M  V30 BEGIN COLLECTION
M  V30 MDLV30/STERAC1 ATOMS=(1 27)
M  V30 END COLLECTION
M  V30 END CTAB
M  END
>  <Column 1>
70

>  <Column 2>
PandemicResponseBox - Plate A

>  <Column 3>
F10

>  <Column 4>
MMV000043

>  <Column 5>
10 mM

>  <Column 6>
ANTIBACTERIALS

>  <Column 7>
1

>  <Column 8>
Succinic acid

>  <Column 9>
Tafenoquine

>  <Column 10>
COc1cc(C)c2c(Oc3cccc(c3)C(F)(F)F)c(OC)cc(NC(C)CCCN)c2n1

>  <Column 11>
CHEMBL298470

>  <Column 12>


>  <Column 13>
581.6

>  <Column 14>
C24 H28 F3 N3 O3

>  <Tox-Glu>
ATCTOX

>  <Column 15>


>  <Column 16>
0 

>  <Column 17>
0 

>  <Column 18>
0 

>  <Column 19>


>  <Tox-Gal>
CTOXGAL

>  <Column 20>


>  <Column 21>
0 

>  <Column 22>
0 

>  <Column 23>
0 

>  <Column 24>


>  <Column 25>


>  <PAMPA>
PAMPA

>  <Column 26>
37

>  <Column 27>


>  <Column 28>


>  <Mouse>
ATMETMOU

>  <Column 29>
-21

>  <Column 30>


$$$$
Compound 72
Actelion Java MolfileCreator 2.0

  0  0  0  0  0  0              0 V3000
M  V30 BEGIN CTAB
M  V30 COUNTS 51 53 0 0 0
M  V30 BEGIN ATOM
M  V30 1 O 3.4641 -1.3749 0.0 0
M  V30 2 C 3.504 -0.2789 0.0 0
M  V30 3 O 4.456 0.0669 0.0 0
M  V30 4 C 2.4465 -0.1527 0.0 0 CFG=1
M  V30 5 C 5.1961 -0.4999 0.0 0 CFG=1
M  V30 6 C 1.6979 -0.6286 0.0 0 CFG=1
M  V30 7 C 2.3954 0.9105 0.0 0
M  V30 8 C 5.1961 -1.4999 0.0 0 CFG=1
M  V30 9 C 6.0621 0.0 0.0 0
M  V30 10 O 0.866 0.0 0.0 0
M  V30 11 C 1.732 -1.5 0.0 0 CFG=1
M  V30 12 O 4.1961 -1.4999 0.0 0
M  V30 13 C 6.0621 -1.9999 0.0 0 CFG=2
M  V30 14 C 4.7479 -2.347 0.0 0
M  V30 15 C 6.0621 1.0 0.0 0
M  V30 16 C 0.0 -0.5 0.0 0 CFG=2
M  V30 17 C 2.598 -1.9999 0.0 0 CFG=1
M  V30 18 C 0.866 -2.0 0.0 0
M  V30 19 O 6.9282 -1.4999 0.0 0
M  V30 20 C 6.0621 -2.9999 0.0 0 CFG=2
M  V30 21 O -0.866 0.0 0.0 0
M  V30 22 C 0.0 -1.4999 0.0 0
M  V30 23 O 3.4641 -1.6874 0.0 0
M  V30 24 C 2.598 -2.9999 0.0 0 CFG=2
M  V30 25 C 5.1961 -3.4999 0.0 0
M  V30 26 C 6.9282 -3.4999 0.0 0
M  V30 27 C -1.732 -0.4999 0.0 0 CFG=2
M  V30 28 C -0.866 -1.9999 0.0 0 CFG=2
M  V30 29 C 3.3697 -0.5874 0.0 0 CFG=2
M  V30 30 O 1.598 -2.9999 0.0 0
M  V30 31 C 3.4641 -3.4999 0.0 0
M  V30 32 C 2.098 -3.866 0.0 0
M  V30 33 O 5.1961 -4.4999 0.0 0
M  V30 34 C 4.3301 -2.9999 0.0 0 CFG=1
M  V30 35 C -1.732 -1.4999 0.0 0 CFG=1
M  V30 36 C -2.598 0.0 0.0 0
M  V30 37 O -0.866 -2.9999 0.0 0
M  V30 38 C -1.732 -2.4999 0.0 0
M  V30 39 O 4.3206 -0.2278 0.0 0
M  V30 40 C 2.6948 0.0911 0.0 0 CFG=2
M  V30 41 C 4.3301 -1.9999 0.0 0
M  V30 42 O -2.598 -1.9999 0.0 0
M  V30 43 C -1.732 -3.4999 0.0 0
M  V30 44 C 4.3301 1.0 0.0 0 CFG=1
M  V30 45 O 1.792 -0.274 0.0 0
M  V30 46 C 2.7254 1.0562 0.0 0 CFG=2
M  V30 47 C 3.4641 1.5 0.0 0
M  V30 48 C 5.1961 1.5 0.0 0
M  V30 49 N 1.732 1.5 0.0 0
M  V30 50 C 1.732 2.5 0.0 0
M  V30 51 C 0.866 1.0 0.0 0
M  V30 END ATOM
M  V30 BEGIN BOND
M  V30 1 2 1 2
M  V30 2 1 2 3
M  V30 3 1 4 2
M  V30 4 1 5 3
M  V30 5 1 6 4
M  V30 6 1 4 7 CFG=1
M  V30 7 1 8 5
M  V30 8 1 5 9 CFG=3
M  V30 9 1 6 10 CFG=3
M  V30 10 1 11 6
M  V30 11 1 8 12 CFG=3
M  V30 12 1 13 8
M  V30 13 1 8 14
M  V30 14 1 9 15
M  V30 15 1 16 10 CFG=1
M  V30 16 1 17 11
M  V30 17 1 11 18 CFG=1
M  V30 18 1 13 19 CFG=3
M  V30 19 1 20 13
M  V30 20 1 16 21
M  V30 21 1 16 22
M  V30 22 1 17 23 CFG=1
M  V30 23 1 24 17
M  V30 24 1 20 25
M  V30 25 1 20 26 CFG=1
M  V30 26 1 27 21
M  V30 27 1 28 22
M  V30 28 1 29 23 CFG=1
M  V30 29 1 24 30 CFG=1
M  V30 30 1 24 31
M  V30 31 1 24 32
M  V30 32 2 25 33
M  V30 33 1 34 25
M  V30 34 1 35 27
M  V30 35 1 27 36 CFG=3
M  V30 36 1 28 37
M  V30 37 1 28 38 CFG=3
M  V30 38 1 29 39
M  V30 39 1 40 29
M  V30 40 1 34 41 CFG=1
M  V30 41 1 35 42 CFG=1
M  V30 42 1 37 43
M  V30 43 1 44 39
M  V30 44 1 40 45 CFG=3
M  V30 45 1 46 40
M  V30 46 1 44 47
M  V30 47 1 44 48 CFG=1
M  V30 48 1 46 49 CFG=1
M  V30 49 1 49 50
M  V30 50 1 49 51
M  V30 51 1 28 35
M  V30 52 1 31 34
M  V30 53 1 46 47
M  V30 END BOND
M  V30 BEGIN COLLECTION
M  V30 MDLV30/STEABS ATOMS=(18 4 5 6 8 11 13 16 17 20 24 27 28 29 34 35 40 44 46)
M  V30 END COLLECTION
M  V30 END CTAB
M  END
>  <Column 1>
71

>  <Column 2>
PandemicResponseBox - Plate A

>  <Column 3>
G10

>  <Column 4>
MMV003137

>  <Column 5>
10 mM

>  <Column 6>
ANTIBACTERIALS

>  <Column 7>


>  <Column 8>
None

>  <Column 9>
Erythromycin

>  <Column 10>
CC[C@H]1OC(=O)[C@H](C)[C@@H](O[C@H]2C[C@@](C)(OC)[C@@H](O)[C@H](C)O2)[C@H](C)[C@@H](O[C@@H]3O[C@H](C)C[C@@H]([C@H]3O)N(C)C)[C@](C)(O)C[C@@H](C)C(=O)[C@H](C)[C@@H](O)[C@]1(C)O

>  <Column 11>
CHEMBL532

>  <Column 12>


>  <Column 13>
733.9

>  <Column 14>
C37H67NO13

>  <Tox-Glu>
ATCTOX

>  <Column 15>


>  <Column 16>
98 

>  <Column 17>
95 

>  <Column 18>
86 

>  <Column 19>


>  <Tox-Gal>
CTOXGAL

>  <Column 20>


>  <Column 21>
89 

>  <Column 22>
90 

>  <Column 23>
90 

>  <Column 24>


>  <Column 25>


>  <PAMPA>
PAMPA

>  <Column 26>
158

>  <Column 27>


>  <Column 28>


>  <Mouse>
ATMETMOU

>  <Column 29>
-7

>  <Column 30>


$$$$
Compound 73
Actelion Java MolfileCreator 2.0

  0  0  0  0  0  0              0 V3000
M  V30 BEGIN CTAB
M  V30 COUNTS 26 28 0 0 0
M  V30 BEGIN ATOM
M  V30 1 Br 5.1961 2.4999 0.0 0
M  V30 2 C 5.1961 1.4999 0.0 0
M  V30 3 C 4.3301 1.0 0.0 0
M  V30 4 C 6.0621 0.9999 0.0 0
M  V30 5 C 4.3301 0.0 0.0 0
M  V30 6 C 6.0621 0.0 0.0 0
M  V30 7 C 5.1961 -0.5 0.0 0
M  V30 8 C 3.4641 -0.5 0.0 0
M  V30 9 O 5.1961 -1.5 0.0 0
M  V30 10 N 2.598 0.0 0.0 0
M  V30 11 C 2.598 1.0 0.0 0
M  V30 12 C 1.732 -0.5 0.0 0
M  V30 13 C 3.4641 1.5 0.0 0
M  V30 14 C 1.732 1.4999 0.0 0
M  V30 15 O 1.732 -1.5 0.0 0
M  V30 16 N 0.866 0.0 0.0 0
M  V30 17 C 3.4641 2.5 0.0 0
M  V30 18 C 1.732 2.5 0.0 0
M  V30 19 C 0.0 -0.5 0.0 0
M  V30 20 C 2.598 3.0 0.0 0
M  V30 21 C -0.866 0.0 0.0 0
M  V30 22 C 0.0 -1.4999 0.0 0
M  V30 23 F 2.598 4.0 0.0 0
M  V30 24 C -1.732 -0.4999 0.0 0
M  V30 25 C -0.866 -1.9999 0.0 0
M  V30 26 C -1.732 -1.4999 0.0 0
M  V30 END ATOM
M  V30 BEGIN BOND
M  V30 1 1 1 2
M  V30 2 2 2 3
M  V30 3 1 2 4
M  V30 4 1 3 5
M  V30 5 2 4 6
M  V30 6 2 5 7
M  V30 7 1 5 8
M  V30 8 1 7 9
M  V30 9 1 8 10
M  V30 10 1 10 11
M  V30 11 1 10 12
M  V30 12 2 11 13
M  V30 13 1 11 14
M  V30 14 2 12 15
M  V30 15 1 12 16
M  V30 16 1 13 17
M  V30 17 2 14 18
M  V30 18 1 16 19
M  V30 19 2 17 20
M  V30 20 2 19 21
M  V30 21 1 19 22
M  V30 22 1 20 23
M  V30 23 1 21 24
M  V30 24 2 22 25
M  V30 25 2 24 26
M  V30 26 1 6 7
M  V30 27 1 18 20
M  V30 28 1 25 26
M  V30 END BOND
M  V30 END CTAB
M  END
>  <Column 1>
72

>  <Column 2>
PandemicResponseBox - Plate A

>  <Column 3>
H10

>  <Column 4>
MMV1581552

>  <Column 5>
10 mM

>  <Column 6>
ANTIBACTERIALS

>  <Column 7>


>  <Column 8>
None

>  <Column 9>


>  <Column 10>
Oc1ccc(Br)cc1CN(C(=O)Nc2ccccc2)c3ccc(F)cc3

>  <Column 11>
CHEMBL1808847

>  <Column 12>


>  <Column 13>
415.3

>  <Column 14>
C20 H16 Br F N2 O2

>  <Tox-Glu>
ATCTOX

>  <Column 15>


>  <Column 16>
87 

>  <Column 17>
4 

>  <Column 18>
3 

>  <Column 19>


>  <Tox-Gal>
CTOXGAL

>  <Column 20>


>  <Column 21>
46 

>  <Column 22>
0 

>  <Column 23>
0 

>  <Column 24>


>  <Column 25>


>  <PAMPA>
PAMPA

>  <Column 26>
69

>  <Column 27>


>  <Column 28>


>  <Mouse>
ATMETMOU

>  <Column 29>
211

>  <Column 30>


$$$$
Compound 74
Actelion Java MolfileCreator 2.0

  0  0  0  0  0  0              0 V3000
M  V30 BEGIN CTAB
M  V30 COUNTS 25 29 0 0 0
M  V30 BEGIN ATOM
M  V30 1 N 3.1328 -2.0366 0.0 0
M  V30 2 N 2.6693 -0.6101 0.0 0
M  V30 3 C 4.6001 -2.3485 0.0 0
M  V30 4 C 3.673 0.5046 0.0 0
M  V30 5 C 1.299 0.0 0.0 0
M  V30 6 N 5.0636 -3.7751 0.0 0
M  V30 7 C 5.6037 -1.2338 0.0 0
M  V30 8 N 2.923 1.8036 0.0 0
M  V30 9 C 5.1402 0.1927 0.0 0
M  V30 10 N 1.4558 1.4917 0.0 0
M  V30 11 C 0.0 -0.75 0.0 0
M  V30 12 C 4.0599 -4.8898 0.0 0
M  V30 13 C 6.5308 -4.087 0.0 0
M  V30 14 C 7.071 -1.5457 0.0 0
M  V30 15 C 6.1439 1.3074 0.0 0
M  V30 16 C -1.299 0.0 0.0 0
M  V30 17 C 0.0 -2.2499 0.0 0
M  V30 18 C 4.5234 -6.3164 0.0 0
M  V30 19 C 6.9943 -5.5135 0.0 0
M  V30 20 C 8.0747 -0.4309 0.0 0
M  V30 21 C 7.6111 0.9955 0.0 0
M  V30 22 C -2.598 -0.7499 0.0 0
M  V30 23 C -1.299 -2.9999 0.0 0
M  V30 24 N 5.9906 -6.6283 0.0 0
M  V30 25 C -2.598 -2.2499 0.0 0
M  V30 END ATOM
M  V30 BEGIN BOND
M  V30 1 1 1 2
M  V30 2 2 1 3
M  V30 3 1 2 4
M  V30 4 1 2 5
M  V30 5 1 3 6
M  V30 6 1 3 7
M  V30 7 2 4 8
M  V30 8 1 4 9
M  V30 9 2 5 10
M  V30 10 1 5 11
M  V30 11 1 6 12
M  V30 12 1 6 13
M  V30 13 1 7 14
M  V30 14 1 9 15
M  V30 15 2 11 16
M  V30 16 1 11 17
M  V30 17 1 12 18
M  V30 18 1 13 19
M  V30 19 2 14 20
M  V30 20 2 15 21
M  V30 21 1 16 22
M  V30 22 2 17 23
M  V30 23 1 18 24
M  V30 24 2 22 25
M  V30 25 2 7 9
M  V30 26 1 8 10
M  V30 27 1 19 24
M  V30 28 1 20 21
M  V30 29 1 23 25
M  V30 END BOND
M  V30 END CTAB
M  END
>  <Column 1>
73

>  <Column 2>
PandemicResponseBox - Plate A

>  <Column 3>
A11

>  <Column 4>
MMV1581551

>  <Column 5>
10 mM

>  <Column 6>
ANTIBACTERIALS

>  <Column 7>


>  <Column 8>
None

>  <Column 9>


>  <Column 10>
C1CN(CCN1)c2nn3c(nnc3c4ccccc24)c5ccccc5

>  <Column 11>
CHEMBL3113524

>  <Column 12>
BMCL,2014,24,123-1238 

>  <Column 13>
330.4

>  <Column 14>
C19 H18 N6

>  <Tox-Glu>
ATCTOX

>  <Column 15>


>  <Column 16>
100 

>  <Column 17>
19 

>  <Column 18>
2 

>  <Column 19>


>  <Tox-Gal>
CTOXGAL

>  <Column 20>


>  <Column 21>
96 

>  <Column 22>
44 

>  <Column 23>
2 

>  <Column 24>


>  <Column 25>


>  <PAMPA>
PAMPA

>  <Column 26>
349

>  <Column 27>


>  <Column 28>


>  <Mouse>
ATMETMOU

>  <Column 29>
-5

>  <Column 30>


$$$$
Compound 75
Actelion Java MolfileCreator 2.0

  0  0  0  0  0  0              0 V3000
M  V30 BEGIN CTAB
M  V30 COUNTS 40 45 0 0 0
M  V30 BEGIN ATOM
M  V30 1 O 3.8971 0.0 0.0 0
M  V30 2 C 2.598 -0.75 0.0 0
M  V30 3 N 1.299 0.0 0.0 0
M  V30 4 C 2.598 -2.25 0.0 0
M  V30 5 C 0.0 -0.75 0.0 0
M  V30 6 C 1.299 -2.9999 0.0 0
M  V30 7 C 3.8971 -3.0 0.0 0
M  V30 8 C -1.299 0.0 0.0 0
M  V30 9 C 0.0 -2.2499 0.0 0
M  V30 10 C 1.299 -4.4999 0.0 0
M  V30 11 C 3.8971 -4.5 0.0 0
M  V30 12 C -2.598 -0.7499 0.0 0
M  V30 13 C -1.299 -2.9999 0.0 0
M  V30 14 C 2.598 -5.25 0.0 0
M  V30 15 C -3.8971 0.0 0.0 0
M  V30 16 C -2.598 -2.2499 0.0 0
M  V30 17 C 2.598 -6.75 0.0 0
M  V30 18 N -4.0539 1.4917 0.0 0
M  V30 19 N -5.2674 -0.6101 0.0 0
M  V30 20 C 1.299 -7.5 0.0 0
M  V30 21 C 3.8971 -7.5 0.0 0
M  V30 22 C -5.5211 1.8036 0.0 0
M  V30 23 C -6.2711 0.5046 0.0 0
M  V30 24 C 1.299 -9.0 0.0 0
M  V30 25 C 3.8971 -9.0 0.0 0
M  V30 26 C 2.598 -9.75 0.0 0
M  V30 27 C 2.598 -11.25 0.0 0
M  V30 28 O 3.8971 -12.0 0.0 0
M  V30 29 N 1.299 -12.0 0.0 0
M  V30 30 C 1.299 -13.5 0.0 0
M  V30 31 C 0.0 -14.25 0.0 0
M  V30 32 C 2.598 -14.25 0.0 0
M  V30 33 C 0.0 -15.75 0.0 0
M  V30 34 C 2.598 -15.75 0.0 0
M  V30 35 C -1.299 -16.4999 0.0 0
M  V30 36 C 1.299 -16.5 0.0 0
M  V30 37 N -2.6693 -15.8898 0.0 0
M  V30 38 N -1.4558 -17.9917 0.0 0
M  V30 39 C -3.673 -17.0046 0.0 0
M  V30 40 C -2.923 -18.3036 0.0 0
M  V30 END ATOM
M  V30 BEGIN BOND
M  V30 1 2 1 2
M  V30 2 1 2 3
M  V30 3 1 2 4
M  V30 4 1 3 5
M  V30 5 2 4 6
M  V30 6 1 4 7
M  V30 7 2 5 8
M  V30 8 1 5 9
M  V30 9 1 6 10
M  V30 10 2 7 11
M  V30 11 1 8 12
M  V30 12 2 9 13
M  V30 13 2 10 14
M  V30 14 1 12 15
M  V30 15 2 12 16
M  V30 16 1 14 17
M  V30 17 2 15 18
M  V30 18 1 15 19
M  V30 19 2 17 20
M  V30 20 1 17 21
M  V30 21 1 18 22
M  V30 22 1 19 23
M  V30 23 1 20 24
M  V30 24 2 21 25
M  V30 25 2 24 26
M  V30 26 1 26 27
M  V30 27 2 27 28
M  V30 28 1 27 29
M  V30 29 1 29 30
M  V30 30 2 30 31
M  V30 31 1 30 32
M  V30 32 1 31 33
M  V30 33 2 32 34
M  V30 34 1 33 35
M  V30 35 2 33 36
M  V30 36 2 35 37
M  V30 37 1 35 38
M  V30 38 1 37 39
M  V30 39 1 38 40
M  V30 40 1 11 14
M  V30 41 1 13 16
M  V30 42 1 22 23
M  V30 43 1 25 26
M  V30 44 1 34 36
M  V30 45 1 39 40
M  V30 END BOND
M  V30 END CTAB
M  END
>  <Column 1>
74

>  <Column 2>
PandemicResponseBox - Plate A

>  <Column 3>
B11

>  <Column 4>
MMV1580853

>  <Column 5>
10 mM

>  <Column 6>
ANTIBACTERIALS

>  <Column 7>
2

>  <Column 8>
Methanesulfonic acid

>  <Column 9>


>  <Column 10>
O=C(Nc1cccc(c1)C2=NCCN2)c3ccc(cc3)c4ccc(cc4)C(=O)Nc5cccc(c5)C6=NCCN6

>  <Column 11>
CHEMBL3410452

>  <Column 12>
�US�20160039857,Journal of Medicinal Chemistry (2015), 58(3), 1215-1227,Proceedings of the National Academy of Sciences of the United States of America (2013), 110(1), 123-128, S123/1-S123/17 

>  <Column 13>
720.8

>  <Column 14>
C32 H28 N6 O2

>  <Tox-Glu>
ATCTOX

>  <Column 15>


>  <Column 16>
93 

>  <Column 17>
50 

>  <Column 18>
8 

>  <Column 19>


>  <Tox-Gal>
CTOXGAL

>  <Column 20>


>  <Column 21>
90 

>  <Column 22>
76 

>  <Column 23>
27 

>  <Column 24>


>  <Column 25>


>  <PAMPA>
PAMPA

>  <Column 26>
undetected

>  <Column 27>
low sensitivity

>  <Column 28>


>  <Mouse>
ATMETMOU

>  <Column 29>


>  <Column 30>
Not determined; Broad Peak

$$$$
Compound 76
Actelion Java MolfileCreator 2.0

  0  0  0  0  0  0              0 V3000
M  V30 BEGIN CTAB
M  V30 COUNTS 19 20 0 0 0
M  V30 BEGIN ATOM
M  V30 1 Cl 8.1192 4.4017 0.0 0
M  V30 2 C 8.8692 3.1026 0.0 0
M  V30 3 C 8.1192 1.8036 0.0 0
M  V30 4 C 10.3692 3.1026 0.0 0
M  V30 5 S 6.6519 1.4917 0.0 0
M  V30 6 C 8.8692 0.5046 0.0 0
M  V30 7 C 11.1192 1.8036 0.0 0
M  V30 8 C 6.4952 0.0 0.0 0
M  V30 9 C 10.3692 0.5046 0.0 0
M  V30 10 C 7.8655 -0.6101 0.0 0
M  V30 11 S 5.1961 -0.75 0.0 0
M  V30 12 Cl 11.1192 -0.7944 0.0 0
M  V30 13 O 4.4461 -2.049 0.0 0
M  V30 14 O 5.9461 -2.049 0.0 0
M  V30 15 N 3.8971 0.0 0.0 0
M  V30 16 C 2.598 -0.75 0.0 0
M  V30 17 B 1.299 0.0 0.0 0
M  V30 18 O 1.299 1.5 0.0 0
M  V30 19 O 0.0 -0.75 0.0 0
M  V30 END ATOM
M  V30 BEGIN BOND
M  V30 1 1 1 2
M  V30 2 2 2 3
M  V30 3 1 2 4
M  V30 4 1 3 5
M  V30 5 1 3 6
M  V30 6 2 4 7
M  V30 7 1 5 8
M  V30 8 2 6 9
M  V30 9 1 6 10
M  V30 10 1 8 11
M  V30 11 1 9 12
M  V30 12 2 11 13
M  V30 13 2 11 14
M  V30 14 1 11 15
M  V30 15 1 15 16
M  V30 16 1 16 17
M  V30 17 1 17 18
M  V30 18 1 17 19
M  V30 19 1 7 9
M  V30 20 2 8 10
M  V30 END BOND
M  V30 END CTAB
M  END
>  <Column 1>
75

>  <Column 2>
PandemicResponseBox - Plate A

>  <Column 3>
C11

>  <Column 4>
MMV1580841

>  <Column 5>
10 mM

>  <Column 6>
ANTIBACTERIALS

>  <Column 7>


>  <Column 8>
None

>  <Column 9>


>  <Column 10>
OB(O)CNS(=O)(=O)c1cc2c(Cl)ccc(Cl)c2s1

>  <Column 11>
CHEMBL1089781

>  <Column 12>


>  <Column 13>
340

>  <Column 14>
C9 H8 B Cl2 N O4 S2

>  <Tox-Glu>
ATCTOX

>  <Column 15>


>  <Column 16>
100 

>  <Column 17>
90 

>  <Column 18>
67 

>  <Column 19>


>  <Tox-Gal>
CTOXGAL

>  <Column 20>


>  <Column 21>
96 

>  <Column 22>
88 

>  <Column 23>
74 

>  <Column 24>


>  <Column 25>


>  <PAMPA>
PAMPA

>  <Column 26>
7

>  <Column 27>


>  <Column 28>


>  <Mouse>
ATMETMOU

>  <Column 29>
242

>  <Column 30>
Large variations

$$$$
Compound 77
Actelion Java MolfileCreator 2.0

  0  0  0  0  0  0              0 V3000
M  V30 BEGIN CTAB
M  V30 COUNTS 22 25 0 0 0
M  V30 BEGIN ATOM
M  V30 1 S 2.3901 -2.9781 0.0 0
M  V30 2 C 2.598 -2.0 0.0 0
M  V30 3 C 1.3956 -3.0826 0.0 0
M  V30 4 N 3.4641 -1.5 0.0 0
M  V30 5 C 1.732 -1.5 0.0 0
M  V30 6 C 0.9889 -2.1691 0.0 0
M  V30 7 C 0.6524 -3.7518 0.0 0
M  V30 8 C 3.4641 -0.5 0.0 0
M  V30 9 C 1.732 -0.5 0.0 0
M  V30 10 C -0.0056 -2.2736 0.0 0
M  V30 11 C -0.2135 -3.2518 0.0 0
M  V30 12 N 2.598 0.0 0.0 0
M  V30 13 S 0.866 0.0 0.0 0
M  V30 14 C 0.866 0.9999 0.0 0
M  V30 15 C 0.0 1.4999 0.0 0
M  V30 16 C 1.732 1.5 0.0 0
M  V30 17 C -0.866 0.9999 0.0 0
M  V30 18 C 0.0 2.4999 0.0 0
M  V30 19 C 1.732 2.5 0.0 0
M  V30 20 O -0.866 0.0 0.0 0
M  V30 21 O -1.732 1.4999 0.0 0
M  V30 22 C 0.866 3.0 0.0 0
M  V30 END ATOM
M  V30 BEGIN BOND
M  V30 1 1 1 2
M  V30 2 1 1 3
M  V30 3 2 2 4
M  V30 4 1 2 5
M  V30 5 2 3 6
M  V30 6 1 3 7
M  V30 7 1 4 8
M  V30 8 2 5 9
M  V30 9 1 6 10
M  V30 10 1 7 11
M  V30 11 2 8 12
M  V30 12 1 9 13
M  V30 13 1 13 14
M  V30 14 2 14 15
M  V30 15 1 14 16
M  V30 16 1 15 17
M  V30 17 1 15 18
M  V30 18 2 16 19
M  V30 19 2 17 20
M  V30 20 1 17 21
M  V30 21 2 18 22
M  V30 22 1 5 6
M  V30 23 1 9 12
M  V30 24 1 10 11
M  V30 25 1 19 22
M  V30 END BOND
M  V30 END CTAB
M  END
>  <Column 1>
76

>  <Column 2>
PandemicResponseBox - Plate A

>  <Column 3>
D11

>  <Column 4>
MMV1579878

>  <Column 5>
10 mM

>  <Column 6>
ANTIBACTERIALS

>  <Column 7>


>  <Column 8>
None

>  <Column 9>


>  <Column 10>
OC(=O)c1ccccc1Sc2ncnc3sc4CCCc4c23

>  <Column 11>
CHEMBL1534296

>  <Column 12>


>  <Column 13>
328.4

>  <Column 14>
C16 H12 N2 O2 S2

>  <Tox-Glu>
ATCTOX

>  <Column 15>


>  <Column 16>
100 

>  <Column 17>
106 

>  <Column 18>
101 

>  <Column 19>


>  <Tox-Gal>
CTOXGAL

>  <Column 20>


>  <Column 21>
101 

>  <Column 22>
104 

>  <Column 23>
108 

>  <Column 24>


>  <Column 25>


>  <PAMPA>
PAMPA

>  <Column 26>
12

>  <Column 27>


>  <Column 28>


>  <Mouse>
ATMETMOU

>  <Column 29>
23

>  <Column 30>


$$$$
Compound 78
Actelion Java MolfileCreator 2.0

  0  0  0  0  0  0              0 V3000
M  V30 BEGIN CTAB
M  V30 COUNTS 19 21 0 0 0
M  V30 BEGIN ATOM
M  V30 1 S 4.3776 -0.0932 0.0 0
M  V30 2 C 3.4641 -0.5 0.0 0
M  V30 3 C 5.0467 -0.8364 0.0 0
M  V30 4 C 2.598 0.0 0.0 0
M  V30 5 C 3.5686 -1.4945 0.0 0
M  V30 6 C 4.5467 -1.7024 0.0 0
M  V30 7 O 2.598 1.0 0.0 0
M  V30 8 N 1.732 -0.5 0.0 0
M  V30 9 C 0.866 0.0 0.0 0
M  V30 10 C 0.0 -0.5 0.0 0
M  V30 11 C -0.866 0.0 0.0 0
M  V30 12 C 0.0 -1.4999 0.0 0
M  V30 13 C -1.732 -0.4999 0.0 0
M  V30 14 C -0.866 1.0 0.0 0
M  V30 15 C -0.866 -1.9999 0.0 0
M  V30 16 C -1.732 -1.4999 0.0 0
M  V30 17 C -2.598 0.0 0.0 0
M  V30 18 C -1.732 1.5 0.0 0
M  V30 19 C -2.598 1.0 0.0 0
M  V30 END ATOM
M  V30 BEGIN BOND
M  V30 1 1 1 2
M  V30 2 1 1 3
M  V30 3 1 2 4
M  V30 4 2 2 5
M  V30 5 2 3 6
M  V30 6 2 4 7
M  V30 7 1 4 8
M  V30 8 1 8 9
M  V30 9 1 9 10
M  V30 10 1 10 11
M  V30 11 2 10 12
M  V30 12 1 11 13
M  V30 13 2 11 14
M  V30 14 1 12 15
M  V30 15 1 13 16
M  V30 16 2 13 17
M  V30 17 1 14 18
M  V30 18 1 17 19
M  V30 19 1 5 6
M  V30 20 2 15 16
M  V30 21 2 18 19
M  V30 END BOND
M  V30 END CTAB
M  END
>  <Column 1>
77

>  <Column 2>
PandemicResponseBox - Plate A

>  <Column 3>
E11

>  <Column 4>
MMV1579845

>  <Column 5>
10 mM

>  <Column 6>
ANTIBACTERIALS

>  <Column 7>


>  <Column 8>
None

>  <Column 9>


>  <Column 10>
O=C(NCc1cccc2ccccc12)c3cccs3

>  <Column 11>
CHEMBL1447817

>  <Column 12>


>  <Column 13>
267.3

>  <Column 14>
C16 H13 N O S

>  <Tox-Glu>
ATCTOX

>  <Column 15>


>  <Column 16>
108 

>  <Column 17>
103 

>  <Column 18>
59 

>  <Column 19>


>  <Tox-Gal>
CTOXGAL

>  <Column 20>


>  <Column 21>
107 

>  <Column 22>
103 

>  <Column 23>
5 

>  <Column 24>


>  <Column 25>


>  <PAMPA>
PAMPA

>  <Column 26>
197

>  <Column 27>


>  <Column 28>


>  <Mouse>
ATMETMOU

>  <Column 29>
>768

>  <Column 30>


$$$$
Compound 79
Actelion Java MolfileCreator 2.0

  0  0  0  0  0  0              0 V3000
M  V30 BEGIN CTAB
M  V30 COUNTS 23 24 0 0 0
M  V30 BEGIN ATOM
M  V30 1 P 5.1961 -0.5 0.0 0
M  V30 2 O 4.6961 -1.366 0.0 0
M  V30 3 O 6.0621 -1.0 0.0 0
M  V30 4 O 5.6961 0.366 0.0 0
M  V30 5 C 4.3301 0.0 0.0 0
M  V30 6 C 3.4641 -0.5 0.0 0
M  V30 7 O 3.4641 -1.5 0.0 0
M  V30 8 N 2.598 0.0 0.0 0
M  V30 9 C 1.732 -0.5 0.0 0
M  V30 10 C 0.866 0.0 0.0 0
M  V30 11 C 0.0 -0.5 0.0 0
M  V30 12 C -0.866 0.0 0.0 0
M  V30 13 C 0.0 -1.4999 0.0 0
M  V30 14 C -1.732 -0.4999 0.0 0
M  V30 15 C -0.866 -1.9999 0.0 0
M  V30 16 O -2.598 0.0 0.0 0
M  V30 17 C -1.732 -1.4999 0.0 0
M  V30 18 C -3.4641 -0.4999 0.0 0
M  V30 19 C -4.3301 0.0 0.0 0
M  V30 20 C -3.4641 -1.4999 0.0 0
M  V30 21 C -5.1961 -0.4999 0.0 0
M  V30 22 C -4.3301 -1.9999 0.0 0
M  V30 23 C -5.1961 -1.4999 0.0 0
M  V30 END ATOM
M  V30 BEGIN BOND
M  V30 1 2 1 2
M  V30 2 1 1 3
M  V30 3 1 1 4
M  V30 4 1 1 5
M  V30 5 1 5 6
M  V30 6 2 6 7
M  V30 7 1 6 8
M  V30 8 1 8 9
M  V30 9 1 9 10
M  V30 10 1 10 11
M  V30 11 2 11 12
M  V30 12 1 11 13
M  V30 13 1 12 14
M  V30 14 2 13 15
M  V30 15 1 14 16
M  V30 16 2 14 17
M  V30 17 1 16 18
M  V30 18 2 18 19
M  V30 19 1 18 20
M  V30 20 1 19 21
M  V30 21 2 20 22
M  V30 22 2 21 23
M  V30 23 1 15 17
M  V30 24 1 22 23
M  V30 END BOND
M  V30 END CTAB
M  END
>  <Column 1>
78

>  <Column 2>
PandemicResponseBox - Plate A

>  <Column 3>
F11

>  <Column 4>
MMV1579787

>  <Column 5>
10 mM

>  <Column 6>
ANTIBACTERIALS

>  <Column 7>


>  <Column 8>
None

>  <Column 9>


>  <Column 10>
OP(=O)(O)CC(=O)NCCc1cccc(Oc2ccccc2)c1

>  <Column 11>
CHEMBL1208289

>  <Column 12>


>  <Column 13>
335.3

>  <Column 14>
C16 H18 N O5 P

>  <Tox-Glu>
ATCTOX

>  <Column 15>


>  <Column 16>
102 

>  <Column 17>
101 

>  <Column 18>
98 

>  <Column 19>


>  <Tox-Gal>
CTOXGAL

>  <Column 20>


>  <Column 21>
104 

>  <Column 22>
105 

>  <Column 23>
107 

>  <Column 24>


>  <Column 25>


>  <PAMPA>
PAMPA

>  <Column 26>
undetected

>  <Column 27>
low sensitivity

>  <Column 28>


>  <Mouse>
ATMETMOU

>  <Column 29>
-1

>  <Column 30>


$$$$
Compound 80
Actelion Java MolfileCreator 2.0

  0  0  0  0  0  0              0 V3000
M  V30 BEGIN CTAB
M  V30 COUNTS 21 22 0 0 0
M  V30 BEGIN ATOM
M  V30 1 S 4.3871 3.0877 0.0 0
M  V30 2 C 5.1961 2.4999 0.0 0
M  V30 3 C 4.6961 4.0388 0.0 0
M  V30 4 N 6.0051 3.0877 0.0 0
M  V30 5 N 5.1961 1.4999 0.0 0
M  V30 6 N 4.1083 4.8478 0.0 0 CHG=1
M  V30 7 C 5.6961 4.0388 0.0 0
M  V30 8 C 4.3301 0.9999 0.0 0
M  V30 9 O 4.5151 5.7614 0.0 0
M  V30 10 O 3.1138 4.7433 0.0 0
M  V30 11 O 3.4641 1.5 0.0 0
M  V30 12 C 4.3301 0.0 0.0 0
M  V30 13 C 3.4641 -0.5 0.0 0
M  V30 14 C 5.1961 -0.5 0.0 0
M  V30 15 C 3.4641 -1.5 0.0 0
M  V30 16 C 2.598 0.0 0.0 0
M  V30 17 C 5.1961 -1.5 0.0 0
M  V30 18 C 4.3301 -2.0 0.0 0
M  V30 19 C 1.732 -0.5 0.0 0
M  V30 20 C 0.866 0.0 0.0 0
M  V30 21 N 0.0 -0.5 0.0 0
M  V30 END ATOM
M  V30 BEGIN BOND
M  V30 1 1 1 2
M  V30 2 1 1 3
M  V30 3 2 2 4
M  V30 4 1 2 5
M  V30 5 1 3 6
M  V30 6 2 3 7
M  V30 7 1 5 8
M  V30 8 2 6 9
M  V30 9 1 6 10
M  V30 10 2 8 11
M  V30 11 1 8 12
M  V30 12 2 12 13
M  V30 13 1 12 14
M  V30 14 1 13 15
M  V30 15 1 13 16
M  V30 16 2 14 17
M  V30 17 2 15 18
M  V30 18 1 16 19
M  V30 19 1 19 20
M  V30 20 1 20 21
M  V30 21 1 4 7
M  V30 22 1 17 18
M  V30 END BOND
M  V30 END CTAB
M  END
>  <Column 1>
79

>  <Column 2>
PandemicResponseBox - Plate A

>  <Column 3>
G11

>  <Column 4>
MMV1579786

>  <Column 5>
10 mM

>  <Column 6>
ANTIBACTERIALS

>  <Column 7>
1

>  <Column 8>
Hydrochloric acid

>  <Column 9>


>  <Column 10>
NCCCC1=C(C=CC=C1)C(=O)NC2=NC=C(S2)[N+](O)=O

>  <Column 11>
NA

>  <Column 12>
Antimicrobial Agents and Chemotherapy�(2016),�60(7),�3980-3987,Antimicrobial Agents and Chemotherapy (2014), 58(8), 4703-4712, 11 pp..WO 2012040170 

>  <Column 13>
380.2

>  <Column 14>
C13 H15 N4 O3 S

>  <Tox-Glu>
ATCTOX

>  <Column 15>


>  <Column 16>
99 

>  <Column 17>
98 

>  <Column 18>
94 

>  <Column 19>


>  <Tox-Gal>
CTOXGAL

>  <Column 20>


>  <Column 21>
101 

>  <Column 22>
102 

>  <Column 23>
104 

>  <Column 24>


>  <Column 25>


>  <PAMPA>
PAMPA

>  <Column 26>
188

>  <Column 27>


>  <Column 28>


>  <Mouse>
ATMETMOU

>  <Column 29>
-18

>  <Column 30>


$$$$
Compound 81
Actelion Java MolfileCreator 2.0

  0  0  0  0  0  0              0 V3000
M  V30 BEGIN CTAB
M  V30 COUNTS 25 27 0 0 0
M  V30 BEGIN ATOM
M  V30 1 O 4.3301 -1.9999 0.0 0
M  V30 2 C 3.4641 -1.4999 0.0 0
M  V30 3 O 2.598 -1.9999 0.0 0
M  V30 4 C 3.4641 -0.4999 0.0 0
M  V30 5 C 2.598 0.0 0.0 0
M  V30 6 C 4.3301 0.0 0.0 0
M  V30 7 N 1.732 -0.5 0.0 0
M  V30 8 C 2.598 1.0 0.0 0
M  V30 9 C 4.3301 1.0 0.0 0
M  V30 10 C 0.866 0.0 0.0 0
M  V30 11 C 3.4641 1.5 0.0 0
M  V30 12 O 0.866 1.0 0.0 0
M  V30 13 C 0.0 -0.5 0.0 0
M  V30 14 C -0.866 0.0 0.0 0
M  V30 15 C 0.0 -1.4999 0.0 0
M  V30 16 C -1.732 -0.4999 0.0 0
M  V30 17 C -0.866 -1.9999 0.0 0
M  V30 18 O -2.598 0.0 0.0 0
M  V30 19 C -1.732 -1.4999 0.0 0
M  V30 20 C -3.4641 -0.4999 0.0 0
M  V30 21 C -4.3301 0.0 0.0 0
M  V30 22 C -3.4641 -1.4999 0.0 0
M  V30 23 C -5.1961 -0.4999 0.0 0
M  V30 24 C -4.3301 -1.9999 0.0 0
M  V30 25 C -5.1961 -1.4999 0.0 0
M  V30 END ATOM
M  V30 BEGIN BOND
M  V30 1 2 1 2
M  V30 2 1 2 3
M  V30 3 1 2 4
M  V30 4 2 4 5
M  V30 5 1 4 6
M  V30 6 1 5 7
M  V30 7 1 5 8
M  V30 8 2 6 9
M  V30 9 1 7 10
M  V30 10 2 8 11
M  V30 11 2 10 12
M  V30 12 1 10 13
M  V30 13 2 13 14
M  V30 14 1 13 15
M  V30 15 1 14 16
M  V30 16 2 15 17
M  V30 17 1 16 18
M  V30 18 2 16 19
M  V30 19 1 18 20
M  V30 20 2 20 21
M  V30 21 1 20 22
M  V30 22 1 21 23
M  V30 23 2 22 24
M  V30 24 2 23 25
M  V30 25 1 9 11
M  V30 26 1 17 19
M  V30 27 1 24 25
M  V30 END BOND
M  V30 END CTAB
M  END
>  <Column 1>
80

>  <Column 2>
PandemicResponseBox - Plate A

>  <Column 3>
H11

>  <Column 4>
MMV1579784

>  <Column 5>
10 mM

>  <Column 6>
ANTIBACTERIALS

>  <Column 7>


>  <Column 8>
None

>  <Column 9>


>  <Column 10>
OC(=O)c1ccccc1NC(=O)c2cccc(Oc3ccccc3)c2

>  <Column 11>
CHEMBL178465

>  <Column 12>


>  <Column 13>
333.3

>  <Column 14>
C20 H15 N O4

>  <Tox-Glu>
ATCTOX

>  <Column 15>


>  <Column 16>
107 

>  <Column 17>
89 

>  <Column 18>
50 

>  <Column 19>


>  <Tox-Gal>
CTOXGAL

>  <Column 20>


>  <Column 21>
95 

>  <Column 22>
90 

>  <Column 23>
2 

>  <Column 24>


>  <Column 25>


>  <PAMPA>
PAMPA

>  <Column 26>
78

>  <Column 27>


>  <Column 28>


>  <Mouse>
ATMETMOU

>  <Column 29>
>768

>  <Column 30>


$$$$
Compound 82
Actelion Java MolfileCreator 2.0

  0  0  0  0  0  0              0 V3000
M  V30 BEGIN CTAB
M  V30 COUNTS 21 23 0 0 0
M  V30 BEGIN ATOM
M  V30 1 S 3.5686 -1.4945 0.0 0
M  V30 2 C 4.5467 -1.7024 0.0 0
M  V30 3 C 3.4641 -0.5 0.0 0 CFG=2
M  V30 4 N 5.2159 -2.4455 0.0 0
M  V30 5 N 5.0467 -0.8364 0.0 0
M  V30 6 C 4.3776 -0.0932 0.0 0
M  V30 7 C 2.598 0.0 0.0 0
M  V30 8 C 6.1294 -2.0388 0.0 0
M  V30 9 N 6.0249 -1.0443 0.0 0
M  V30 10 O 4.5855 0.8848 0.0 0
M  V30 11 C 1.732 -0.5 0.0 0
M  V30 12 O 1.732 -1.5 0.0 0
M  V30 13 N 0.866 0.0 0.0 0
M  V30 14 C 0.0 -0.5 0.0 0
M  V30 15 C -0.866 0.0 0.0 0
M  V30 16 C 0.0 -1.4999 0.0 0
M  V30 17 C -1.732 -0.4999 0.0 0
M  V30 18 C -0.866 -1.9999 0.0 0
M  V30 19 C -1.732 -1.4999 0.0 0
M  V30 20 O -2.598 -1.9999 0.0 0
M  V30 21 C -2.598 -2.9999 0.0 0
M  V30 END ATOM
M  V30 BEGIN BOND
M  V30 1 1 1 2
M  V30 2 1 3 1
M  V30 3 2 2 4
M  V30 4 1 2 5
M  V30 5 1 3 6
M  V30 6 1 3 7 CFG=1
M  V30 7 1 4 8
M  V30 8 1 5 9
M  V30 9 2 6 10
M  V30 10 1 7 11
M  V30 11 2 11 12
M  V30 12 1 11 13
M  V30 13 1 13 14
M  V30 14 2 14 15
M  V30 15 1 14 16
M  V30 16 1 15 17
M  V30 17 2 16 18
M  V30 18 2 17 19
M  V30 19 1 19 20
M  V30 20 1 20 21
M  V30 21 1 5 6
M  V30 22 2 8 9
M  V30 23 1 18 19
M  V30 END BOND
M  V30 BEGIN COLLECTION
M  V30 MDLV30/STERAC1 ATOMS=(1 3)
M  V30 END COLLECTION
M  V30 END CTAB
M  END
>  <Column 1>
81

>  <Column 2>
PandemicResponseBox - Plate B

>  <Column 3>
A02

>  <Column 4>
MMV1483032

>  <Column 5>
10 mM

>  <Column 6>
ANTIBACTERIALS

>  <Column 7>


>  <Column 8>
None

>  <Column 9>
AC1MTT7T

>  <Column 10>
COc1ccc(NC(=O)CC2Sc3ncnn3C2=O)cc1

>  <Column 11>
CHEMBL243644

>  <Column 12>


>  <Column 13>
304.3

>  <Column 14>
C13H12N4O3S

>  <Tox-Glu>
ATCTOX

>  <Column 15>


>  <Column 16>
93 

>  <Column 17>
0 

>  <Column 18>
1 

>  <Column 19>


>  <Tox-Gal>
CTOXGAL

>  <Column 20>


>  <Column 21>
99 

>  <Column 22>
94 

>  <Column 23>
1 

>  <Column 24>


>  <Column 25>


>  <PAMPA>
PAMPA

>  <Column 26>
29

>  <Column 27>


>  <Column 28>


>  <Mouse>
ATMETMOU

>  <Column 29>
39

>  <Column 30>
Large variations

$$$$
Compound 83
Actelion Java MolfileCreator 2.0

  0  0  0  0  0  0              0 V3000
M  V30 BEGIN CTAB
M  V30 COUNTS 30 32 0 0 0
M  V30 BEGIN ATOM
M  V30 1 O 6.0621 1.0 0.0 0
M  V30 2 C 5.1961 1.5 0.0 0
M  V30 3 N 5.1961 2.5 0.0 0
M  V30 4 C 4.3301 1.0 0.0 0
M  V30 5 C 4.3301 3.0 0.0 0
M  V30 6 C 3.4641 1.5 0.0 0
M  V30 7 C 4.3301 0.0 0.0 0
M  V30 8 C 4.3301 4.0 0.0 0
M  V30 9 C 3.4641 2.5 0.0 0
M  V30 10 C 2.598 0.9999 0.0 0
M  V30 11 C 3.4641 -0.4999 0.0 0
M  V30 12 C 5.1961 4.5 0.0 0
M  V30 13 C 3.4641 4.5 0.0 0
M  V30 14 C 2.598 3.0 0.0 0
M  V30 15 C 2.598 0.0 0.0 0
M  V30 16 O 6.0621 4.0 0.0 0
M  V30 17 N 5.1961 5.5 0.0 0
M  V30 18 C 2.598 4.0 0.0 0
M  V30 19 C 1.732 -0.5 0.0 0
M  V30 20 O 1.732 -1.5 0.0 0
M  V30 21 N 0.866 0.0 0.0 0
M  V30 22 C 0.0 -0.5 0.0 0
M  V30 23 C -0.866 0.0 0.0 0
M  V30 24 C 0.0 -1.4999 0.0 0
M  V30 25 C -0.866 1.0 0.0 0
M  V30 26 C -1.732 -0.4999 0.0 0
M  V30 27 C -0.866 -1.9999 0.0 0
M  V30 28 O 0.0 1.5 0.0 0
M  V30 29 N -1.732 1.5 0.0 0
M  V30 30 C -1.732 -1.4999 0.0 0
M  V30 END ATOM
M  V30 BEGIN BOND
M  V30 1 2 1 2
M  V30 2 1 2 3
M  V30 3 1 2 4
M  V30 4 1 3 5
M  V30 5 2 4 6
M  V30 6 1 4 7
M  V30 7 2 5 8
M  V30 8 1 5 9
M  V30 9 1 6 10
M  V30 10 2 7 11
M  V30 11 1 8 12
M  V30 12 1 8 13
M  V30 13 2 9 14
M  V30 14 2 10 15
M  V30 15 2 12 16
M  V30 16 1 12 17
M  V30 17 2 13 18
M  V30 18 1 15 19
M  V30 19 2 19 20
M  V30 20 1 19 21
M  V30 21 1 21 22
M  V30 22 2 22 23
M  V30 23 1 22 24
M  V30 24 1 23 25
M  V30 25 1 23 26
M  V30 26 2 24 27
M  V30 27 2 25 28
M  V30 28 1 25 29
M  V30 29 2 26 30
M  V30 30 1 11 15
M  V30 31 1 14 18
M  V30 32 1 27 30
M  V30 END BOND
M  V30 END CTAB
M  END
>  <Column 1>
82

>  <Column 2>
PandemicResponseBox - Plate B

>  <Column 3>
B02

>  <Column 4>
MMV508427

>  <Column 5>
10 mM

>  <Column 6>
ANTIBACTERIALS

>  <Column 7>


>  <Column 8>
None

>  <Column 9>


>  <Column 10>
NC(=O)c1ccccc1NC(=O)c2ccc(cc2)C(=O)Nc3ccccc3C(=O)N

>  <Column 11>
CHEMBL2179142

>  <Column 12>


>  <Column 13>
402.4

>  <Column 14>
C22H18N4O4

>  <Tox-Glu>
ATCTOX

>  <Column 15>


>  <Column 16>
100 

>  <Column 17>
98 

>  <Column 18>
98 

>  <Column 19>


>  <Tox-Gal>
CTOXGAL

>  <Column 20>


>  <Column 21>
97 

>  <Column 22>
102 

>  <Column 23>
100 

>  <Column 24>


>  <Column 25>


>  <PAMPA>
PAMPA

>  <Column 26>
undetected

>  <Column 27>
low sensitivity

>  <Column 28>


>  <Mouse>
ATMETMOU

>  <Column 29>
-20

>  <Column 30>
Large variations

$$$$
Compound 84
Actelion Java MolfileCreator 2.0

  0  0  0  0  0  0              0 V3000
M  V30 BEGIN CTAB
M  V30 COUNTS 20 22 0 0 0
M  V30 BEGIN ATOM
M  V30 1 S 1.732 -0.5 0.0 0
M  V30 2 C 0.866 0.0 0.0 0
M  V30 3 C 2.598 0.0 0.0 0
M  V30 4 C 0.0 -0.5 0.0 0 CFG=2
M  V30 5 C -0.9135 -0.0932 0.0 0 CFG=1
M  V30 6 C -0.1045 -1.4945 0.0 0
M  V30 7 O -1.1214 0.8848 0.0 0
M  V30 8 C -1.5826 -0.8364 0.0 0
M  V30 9 N -1.0826 -1.7024 0.0 0
M  V30 10 C -1.4894 -2.6159 0.0 0
M  V30 11 C -0.9016 -3.4249 0.0 0
M  V30 12 C -1.2106 -4.376 0.0 0
M  V30 13 C 0.0983 -3.4249 0.0 0
M  V30 14 N -2.1241 -4.7827 0.0 0
M  V30 15 C -0.4016 -4.9638 0.0 0
M  V30 16 N 0.4073 -4.376 0.0 0
M  V30 17 C -2.2287 -5.7773 0.0 0
M  V30 18 C -0.5061 -5.9583 0.0 0
M  V30 19 N -1.4197 -6.365 0.0 0
M  V30 20 N 0.3028 -6.5461 0.0 0
M  V30 END ATOM
M  V30 BEGIN BOND
M  V30 1 1 1 2
M  V30 2 1 1 3
M  V30 3 1 4 2 CFG=1
M  V30 4 1 5 4
M  V30 5 1 4 6
M  V30 6 1 5 7 CFG=3
M  V30 7 1 5 8
M  V30 8 1 6 9
M  V30 9 1 9 10
M  V30 10 1 10 11
M  V30 11 1 11 12
M  V30 12 2 11 13
M  V30 13 2 12 14
M  V30 14 1 12 15
M  V30 15 1 13 16
M  V30 16 1 14 17
M  V30 17 2 15 18
M  V30 18 2 17 19
M  V30 19 1 18 20
M  V30 20 1 8 9
M  V30 21 1 15 16
M  V30 22 1 18 19
M  V30 END BOND
M  V30 BEGIN COLLECTION
M  V30 MDLV30/STEABS ATOMS=(2 4 5)
M  V30 END COLLECTION
M  V30 END CTAB
M  END
>  <Column 1>
83

>  <Column 2>
PandemicResponseBox - Plate B

>  <Column 3>
C02

>  <Column 4>
MMV1578565

>  <Column 5>
10 mM

>  <Column 6>
ANTIBACTERIALS

>  <Column 7>


>  <Column 8>
None

>  <Column 9>
MT-DADMe-ImmA

>  <Column 10>
CSC[C@H]1CN(Cc2c[nH]c3c(N)ncnc23)C[C@@H]1O

>  <Column 11>
CHEMBL405346

>  <Column 12>


>  <Column 13>
293.4

>  <Column 14>
C13 H19 N5 O S

>  <Tox-Glu>
ATCTOX

>  <Column 15>


>  <Column 16>
97 

>  <Column 17>
96 

>  <Column 18>
95 

>  <Column 19>


>  <Tox-Gal>
CTOXGAL

>  <Column 20>


>  <Column 21>
97 

>  <Column 22>
97 

>  <Column 23>
97 

>  <Column 24>


>  <Column 25>


>  <PAMPA>
PAMPA

>  <Column 26>
undetected

>  <Column 27>
low sensitivity

>  <Column 28>


>  <Mouse>
ATMETMOU

>  <Column 29>
-19

>  <Column 30>


$$$$
Compound 85
Actelion Java MolfileCreator 2.0

  0  0  0  0  0  0              0 V3000
M  V30 BEGIN CTAB
M  V30 COUNTS 19 20 0 0 0
M  V30 BEGIN ATOM
M  V30 1 O 6.9282 2.4999 0.0 0
M  V30 2 C 6.9282 1.4999 0.0 0
M  V30 3 C 6.0621 0.9999 0.0 0
M  V30 4 C 7.7942 0.9999 0.0 0
M  V30 5 O 5.1961 1.5 0.0 0
M  V30 6 C 6.0621 0.0 0.0 0
M  V30 7 C 7.7942 0.0 0.0 0
M  V30 8 C 8.6602 1.4999 0.0 0
M  V30 9 N 6.9282 -0.5 0.0 0
M  V30 10 C 5.1961 -0.5 0.0 0
M  V30 11 C 8.6602 -0.5 0.0 0
M  V30 12 C 9.5262 0.9999 0.0 0
M  V30 13 C 4.3301 0.0 0.0 0
M  V30 14 C 9.5262 0.0 0.0 0
M  V30 15 C 3.4641 -0.5 0.0 0
M  V30 16 C 2.598 0.0 0.0 0
M  V30 17 C 1.732 -0.5 0.0 0
M  V30 18 C 0.866 0.0 0.0 0
M  V30 19 C 0.0 -0.5 0.0 0
M  V30 END ATOM
M  V30 BEGIN BOND
M  V30 1 2 1 2
M  V30 2 1 2 3
M  V30 3 1 2 4
M  V30 4 1 3 5
M  V30 5 2 3 6
M  V30 6 2 4 7
M  V30 7 1 4 8
M  V30 8 1 6 9
M  V30 9 1 6 10
M  V30 10 1 7 11
M  V30 11 2 8 12
M  V30 12 1 10 13
M  V30 13 2 11 14
M  V30 14 1 13 15
M  V30 15 1 15 16
M  V30 16 1 16 17
M  V30 17 1 17 18
M  V30 18 1 18 19
M  V30 19 1 7 9
M  V30 20 1 12 14
M  V30 END BOND
M  V30 END CTAB
M  END
>  <Column 1>
84

>  <Column 2>
PandemicResponseBox - Plate B

>  <Column 3>
D02

>  <Column 4>
MMV1578561

>  <Column 5>
10 mM

>  <Column 6>
ANTIBACTERIALS

>  <Column 7>


>  <Column 8>
None

>  <Column 9>


>  <Column 10>
CCCCCCCC1=C(O)C(=O)c2ccccc2N1

>  <Column 11>
CHEMBL2426244

>  <Column 12>


>  <Column 13>
259.3

>  <Column 14>
C16 H21 N O2

>  <Tox-Glu>
ATCTOX

>  <Column 15>


>  <Column 16>
79 

>  <Column 17>
62 

>  <Column 18>
65 

>  <Column 19>


>  <Tox-Gal>
CTOXGAL

>  <Column 20>


>  <Column 21>
0 

>  <Column 22>
0 

>  <Column 23>
1 

>  <Column 24>


>  <Column 25>


>  <PAMPA>
PAMPA

>  <Column 26>
241

>  <Column 27>


>  <Column 28>


>  <Mouse>
ATMETMOU

>  <Column 29>


>  <Column 30>
Not determined; Broad Peak

$$$$
Compound 86
Actelion Java MolfileCreator 2.0

  0  0  0  0  0  0              0 V3000
M  V30 BEGIN CTAB
M  V30 COUNTS 24 26 0 0 0
M  V30 BEGIN ATOM
M  V30 1 S 4.3776 -0.0932 0.0 0
M  V30 2 C 3.4641 -0.5 0.0 0
M  V30 3 C 5.0467 -0.8364 0.0 0
M  V30 4 C 3.5686 -1.4945 0.0 0
M  V30 5 C 2.598 0.0 0.0 0
M  V30 6 C 4.5467 -1.7024 0.0 0
M  V30 7 C 1.732 -0.5 0.0 0
M  V30 8 O 0.866 0.0 0.0 0
M  V30 9 C 0.0 -0.5 0.0 0
M  V30 10 C -0.866 0.0 0.0 0
M  V30 11 C 0.0 -1.4999 0.0 0
M  V30 12 C -1.732 -0.4999 0.0 0
M  V30 13 C -0.866 -1.9999 0.0 0
M  V30 14 O -2.598 0.0 0.0 0
M  V30 15 N -1.732 -1.4999 0.0 0
M  V30 16 C -2.598 -1.9999 0.0 0
M  V30 17 C -2.598 -2.9999 0.0 0
M  V30 18 C -3.4641 -3.4999 0.0 0
M  V30 19 C -1.732 -3.4999 0.0 0
M  V30 20 C -3.4641 -4.4999 0.0 0
M  V30 21 C -4.3301 -2.9999 0.0 0
M  V30 22 C -1.732 -4.4999 0.0 0
M  V30 23 N -4.3301 -4.9999 0.0 0
M  V30 24 C -2.598 -4.9999 0.0 0
M  V30 END ATOM
M  V30 BEGIN BOND
M  V30 1 1 1 2
M  V30 2 1 1 3
M  V30 3 2 2 4
M  V30 4 1 2 5
M  V30 5 2 3 6
M  V30 6 1 5 7
M  V30 7 1 7 8
M  V30 8 1 8 9
M  V30 9 2 9 10
M  V30 10 1 9 11
M  V30 11 1 10 12
M  V30 12 2 11 13
M  V30 13 2 12 14
M  V30 14 1 12 15
M  V30 15 1 15 16
M  V30 16 1 16 17
M  V30 17 2 17 18
M  V30 18 1 17 19
M  V30 19 1 18 20
M  V30 20 1 18 21
M  V30 21 2 19 22
M  V30 22 1 20 23
M  V30 23 2 20 24
M  V30 24 1 4 6
M  V30 25 1 13 15
M  V30 26 1 22 24
M  V30 END BOND
M  V30 END CTAB
M  END
>  <Column 1>
85

>  <Column 2>
PandemicResponseBox - Plate B

>  <Column 3>
E02

>  <Column 4>
MMV1578557

>  <Column 5>
10 mM

>  <Column 6>
ANTIBACTERIALS

>  <Column 7>


>  <Column 8>
None

>  <Column 9>
CG-400459

>  <Column 10>
Cc1c(N)cccc1CN2C=CC(=CC2=O)OCCc3cccs3

>  <Column 11>
CHEMBL3544978

>  <Column 12>


>  <Column 13>
340.4

>  <Column 14>
C19 H20 N2 O2 S

>  <Tox-Glu>
ATCTOX

>  <Column 15>


>  <Column 16>
98 

>  <Column 17>
95 

>  <Column 18>
74 

>  <Column 19>


>  <Tox-Gal>
CTOXGAL

>  <Column 20>


>  <Column 21>
101 

>  <Column 22>
92 

>  <Column 23>
0 

>  <Column 24>


>  <Column 25>


>  <PAMPA>
PAMPA

>  <Column 26>
562

>  <Column 27>


>  <Column 28>


>  <Mouse>
ATMETMOU

>  <Column 29>
61

>  <Column 30>


$$$$
Compound 87
Actelion Java MolfileCreator 2.0

  0  0  0  0  0  0              0 V3000
M  V30 BEGIN CTAB
M  V30 COUNTS 30 32 0 0 0
M  V30 BEGIN ATOM
M  V30 1 Cl 3.4641 1.4999 0.0 0
M  V30 2 C 4.3301 1.0 0.0 0
M  V30 3 C 4.3301 0.0 0.0 0
M  V30 4 C 5.1961 1.5 0.0 0
M  V30 5 O 3.4641 -0.5 0.0 0
M  V30 6 C 5.1961 -0.4999 0.0 0
M  V30 7 C 6.0621 1.0 0.0 0
M  V30 8 C 2.598 0.0 0.0 0
M  V30 9 C 6.0621 0.0 0.0 0
M  V30 10 Cl 6.9282 1.5 0.0 0
M  V30 11 C 1.732 -0.5 0.0 0 CFG=1
M  V30 12 O 1.732 -1.5 0.0 0
M  V30 13 C 0.866 0.0 0.0 0
M  V30 14 N 0.0 -0.5 0.0 0
M  V30 15 C -0.9135 -0.0932 0.0 0
M  V30 16 C -0.1045 -1.4945 0.0 0
M  V30 17 N -1.1214 0.8848 0.0 0
M  V30 18 N -1.5826 -0.8364 0.0 0
M  V30 19 C -1.0826 -1.7024 0.0 0
M  V30 20 C 0.5646 -2.2376 0.0 0
M  V30 21 C -2.5771 -0.7318 0.0 0
M  V30 22 C -1.3916 -2.6534 0.0 0
M  V30 23 C 0.2555 -3.1887 0.0 0
M  V30 24 C -2.9839 0.1816 0.0 0
M  V30 25 C -0.7225 -3.3966 0.0 0
M  V30 26 N -3.9784 0.2861 0.0 0
M  V30 27 C -4.5662 -0.5228 0.0 0
M  V30 28 C -4.3851 1.1997 0.0 0
M  V30 29 C -4.1595 -1.4363 0.0 0
M  V30 30 C -5.3797 1.3042 0.0 0
M  V30 END ATOM
M  V30 BEGIN BOND
M  V30 1 1 1 2
M  V30 2 2 2 3
M  V30 3 1 2 4
M  V30 4 1 3 5
M  V30 5 1 3 6
M  V30 6 2 4 7
M  V30 7 1 5 8
M  V30 8 2 6 9
M  V30 9 1 7 10
M  V30 10 1 11 8
M  V30 11 1 11 12 CFG=1
M  V30 12 1 11 13
M  V30 13 1 13 14
M  V30 14 1 14 15
M  V30 15 1 14 16
M  V30 16 2 15 17
M  V30 17 1 15 18
M  V30 18 2 16 19
M  V30 19 1 16 20
M  V30 20 1 18 21
M  V30 21 1 19 22
M  V30 22 2 20 23
M  V30 23 1 21 24
M  V30 24 2 22 25
M  V30 25 1 24 26
M  V30 26 1 26 27
M  V30 27 1 26 28
M  V30 28 1 27 29
M  V30 29 1 28 30
M  V30 30 1 7 9
M  V30 31 1 18 19
M  V30 32 1 23 25
M  V30 END BOND
M  V30 BEGIN COLLECTION
M  V30 MDLV30/STERAC1 ATOMS=(1 11)
M  V30 END COLLECTION
M  V30 END CTAB
M  END
>  <Column 1>
86

>  <Column 2>
PandemicResponseBox - Plate B

>  <Column 3>
F02

>  <Column 4>
MMV000725

>  <Column 5>
10 mM

>  <Column 6>
ANTIBACTERIALS

>  <Column 7>


>  <Column 8>
None

>  <Column 9>


>  <Column 10>
ClC3=C(OCC(O)C[N]1[C](=N)[N](CCN(CC)CC)C2=C1C=CC=C2)C=CC(=C3)Cl

>  <Column 11>
CHEMBL1197863

>  <Column 12>
�Bioorganic & Medicinal Chemistry Letters�(2015),�25(2),�378-383

>  <Column 13>
451.4

>  <Column 14>
C22H28Cl2N4O2

>  <Tox-Glu>
ATCTOX

>  <Column 15>


>  <Column 16>
0 

>  <Column 17>
0 

>  <Column 18>
1 

>  <Column 19>


>  <Tox-Gal>
CTOXGAL

>  <Column 20>


>  <Column 21>
0 

>  <Column 22>
0 

>  <Column 23>
0 

>  <Column 24>


>  <Column 25>


>  <PAMPA>
PAMPA

>  <Column 26>
10

>  <Column 27>


>  <Column 28>


>  <Mouse>
ATMETMOU

>  <Column 29>
52

>  <Column 30>


$$$$
Compound 88
Actelion Java MolfileCreator 2.0

  0  0  0  0  0  0              0 V3000
M  V30 BEGIN CTAB
M  V30 COUNTS 29 31 0 0 0
M  V30 BEGIN ATOM
M  V30 1 Cl 9.0932 -3.0 0.0 0
M  V30 2 C 7.7942 -2.25 0.0 0
M  V30 3 C 7.7942 -0.75 0.0 0
M  V30 4 C 6.4951 -3.0 0.0 0
M  V30 5 C 9.0932 0.0 0.0 0
M  V30 6 C 6.4951 0.0 0.0 0
M  V30 7 C 5.1961 -2.25 0.0 0
M  V30 8 O 9.0932 1.5 0.0 0
M  V30 9 N 10.3923 -0.75 0.0 0
M  V30 10 C 5.1961 -0.75 0.0 0
M  V30 11 C 11.6913 0.0 0.0 0
M  V30 12 S 3.8971 0.0 0.0 0
M  V30 13 S 13.0616 -0.6101 0.0 0
M  V30 14 C 11.8481 1.4917 0.0 0
M  V30 15 O 4.6471 1.299 0.0 0
M  V30 16 O 3.1471 1.299 0.0 0
M  V30 17 N 2.598 -0.75 0.0 0
M  V30 18 C 14.0653 0.5046 0.0 0
M  V30 19 C 10.7334 2.4954 0.0 0
M  V30 20 C 13.3153 1.8036 0.0 0
M  V30 21 C 2.598 -2.25 0.0 0
M  V30 22 C 1.299 0.0 0.0 0
M  V30 23 C 15.5653 0.5046 0.0 0
M  V30 24 N 9.6187 3.4991 0.0 0
M  V30 25 C 14.0653 3.1026 0.0 0
M  V30 26 C 3.8971 -3.0 0.0 0
M  V30 27 C 0.0 -0.75 0.0 0
M  V30 28 C 16.3153 1.8036 0.0 0
M  V30 29 C 15.5653 3.1026 0.0 0
M  V30 END ATOM
M  V30 BEGIN BOND
M  V30 1 1 1 2
M  V30 2 2 2 3
M  V30 3 1 2 4
M  V30 4 1 3 5
M  V30 5 1 3 6
M  V30 6 2 4 7
M  V30 7 2 5 8
M  V30 8 1 5 9
M  V30 9 2 6 10
M  V30 10 1 9 11
M  V30 11 1 10 12
M  V30 12 1 11 13
M  V30 13 2 11 14
M  V30 14 2 12 15
M  V30 15 2 12 16
M  V30 16 1 12 17
M  V30 17 1 13 18
M  V30 18 1 14 19
M  V30 19 1 14 20
M  V30 20 1 17 21
M  V30 21 1 17 22
M  V30 22 1 18 23
M  V30 23 3 19 24
M  V30 24 1 20 25
M  V30 25 1 21 26
M  V30 26 1 22 27
M  V30 27 1 23 28
M  V30 28 1 25 29
M  V30 29 1 7 10
M  V30 30 2 18 20
M  V30 31 1 28 29
M  V30 END BOND
M  V30 END CTAB
M  END
>  <Column 1>
87

>  <Column 2>
PandemicResponseBox - Plate B

>  <Column 3>
G02

>  <Column 4>
MMV1634384

>  <Column 5>
10 mM

>  <Column 6>
ANTIBACTERIALS

>  <Column 7>


>  <Column 8>
None

>  <Column 9>


>  <Column 10>
ClC3=C(C(=O)NC1=C(C#N)C2=C(S1)CCCC2)C=C([S](=O)(=O)N(CC)CC)C=C3

>  <Column 11>
CHEMBL88614

>  <Column 12>


>  <Column 13>
452

>  <Column 14>
C20 H22 Cl N3 O3 S2

>  <Tox-Glu>
ATCTOX

>  <Column 15>


>  <Column 16>
65 

>  <Column 17>
62 

>  <Column 18>
0 

>  <Column 19>


>  <Tox-Gal>
CTOXGAL

>  <Column 20>


>  <Column 21>
1 

>  <Column 22>
2 

>  <Column 23>
0 

>  <Column 24>


>  <Column 25>


>  <PAMPA>
PAMPA

>  <Column 26>
278

>  <Column 27>


>  <Column 28>


>  <Mouse>
ATMETMOU

>  <Column 29>
598

>  <Column 30>


$$$$
Compound 89
Actelion Java MolfileCreator 2.0

  0  0  0  0  0  0              0 V3000
M  V30 BEGIN CTAB
M  V30 COUNTS 34 37 0 0 0
M  V30 BEGIN ATOM
M  V30 1 O 1.732 1.4999 0.0 0
M  V30 2 C 2.598 1.0 0.0 0
M  V30 3 N 2.598 0.0 0.0 0
M  V30 4 N 3.4641 1.4999 0.0 0
M  V30 5 C 3.4641 -0.5 0.0 0
M  V30 6 C 1.732 -0.5 0.0 0
M  V30 7 C 4.3301 1.0 0.0 0
M  V30 8 O 3.4641 -1.5 0.0 0
M  V30 9 C 4.3301 0.0 0.0 0
M  V30 10 C 0.866 0.0 0.0 0
M  V30 11 N 5.1961 1.5 0.0 0
M  V30 12 N 0.0 -0.5 0.0 0
M  V30 13 C 5.1961 2.5 0.0 0
M  V30 14 C -0.866 0.0 0.0 0
M  V30 15 C 0.0 -1.4999 0.0 0
M  V30 16 C 6.0621 3.0 0.0 0
M  V30 17 C 4.3301 3.0 0.0 0
M  V30 18 C -1.732 -0.4999 0.0 0
M  V30 19 C -0.866 -1.9999 0.0 0
M  V30 20 C 6.0621 4.0 0.0 0
M  V30 21 C 4.3301 4.0 0.0 0
M  V30 22 N -1.732 -1.4999 0.0 0
M  V30 23 C 5.1961 4.5 0.0 0
M  V30 24 C 6.9282 4.5 0.0 0
M  V30 25 C -2.598 -1.9999 0.0 0
M  V30 26 C 5.1961 5.5 0.0 0
M  V30 27 C 6.9282 5.4999 0.0 0
M  V30 28 O -3.4641 -1.4999 0.0 0
M  V30 29 C -2.598 -2.9999 0.0 0
M  V30 30 C -3.4641 -3.4999 0.0 0
M  V30 31 C -1.732 -3.4999 0.0 0
M  V30 32 C -3.4641 -4.4999 0.0 0
M  V30 33 C -1.732 -4.4999 0.0 0
M  V30 34 C -2.598 -4.9999 0.0 0
M  V30 END ATOM
M  V30 BEGIN BOND
M  V30 1 2 1 2
M  V30 2 1 2 3
M  V30 3 1 2 4
M  V30 4 1 3 5
M  V30 5 1 3 6
M  V30 6 1 4 7
M  V30 7 2 5 8
M  V30 8 1 5 9
M  V30 9 1 6 10
M  V30 10 1 7 11
M  V30 11 1 10 12
M  V30 12 1 11 13
M  V30 13 1 12 14
M  V30 14 1 12 15
M  V30 15 2 13 16
M  V30 16 1 13 17
M  V30 17 1 14 18
M  V30 18 1 15 19
M  V30 19 1 16 20
M  V30 20 2 17 21
M  V30 21 1 18 22
M  V30 22 2 20 23
M  V30 23 1 20 24
M  V30 24 1 22 25
M  V30 25 1 23 26
M  V30 26 1 24 27
M  V30 27 2 25 28
M  V30 28 1 25 29
M  V30 29 2 29 30
M  V30 30 1 29 31
M  V30 31 1 30 32
M  V30 32 2 31 33
M  V30 33 2 32 34
M  V30 34 2 7 9
M  V30 35 1 19 22
M  V30 36 1 21 23
M  V30 37 1 33 34
M  V30 END BOND
M  V30 END CTAB
M  END
>  <Column 1>
88

>  <Column 2>
PandemicResponseBox - Plate B

>  <Column 3>
H02

>  <Column 4>
MMV1634383

>  <Column 5>
10 mM

>  <Column 6>
ANTIBACTERIALS

>  <Column 7>


>  <Column 8>
None

>  <Column 9>


>  <Column 10>
O=[C]1[N]([C](=O)C=C([NH]1)NC2=CC(=C(C)C=C2)CC)CCN4CCN(C(=O)C3=CC=CC=C3)CC4

>  <Column 11>
CHEMBL199085

>  <Column 12>


>  <Column 13>
461.6

>  <Column 14>
C26 H31 N5 O3

>  <Tox-Glu>
ATCTOX

>  <Column 15>


>  <Column 16>
97 

>  <Column 17>
95 

>  <Column 18>
85 

>  <Column 19>


>  <Tox-Gal>
CTOXGAL

>  <Column 20>


>  <Column 21>
91 

>  <Column 22>
94 

>  <Column 23>
87 

>  <Column 24>


>  <Column 25>


>  <PAMPA>
PAMPA

>  <Column 26>
520

>  <Column 27>


>  <Column 28>


>  <Mouse>
ATMETMOU

>  <Column 29>
586

>  <Column 30>


$$$$
Compound 90
Actelion Java MolfileCreator 2.0

  0  0  0  0  0  0              0 V3000
M  V30 BEGIN CTAB
M  V30 COUNTS 17 18 0 0 0
M  V30 BEGIN ATOM
M  V30 1 S 1.732 -0.5 0.0 0
M  V30 2 O 1.232 -1.366 0.0 0
M  V30 3 O 2.232 0.366 0.0 0
M  V30 4 O 0.866 0.0 0.0 0
M  V30 5 O 2.598 -0.9999 0.0 0
M  V30 6 N 0.0 -0.5 0.0 0
M  V30 7 C -0.9135 -0.0932 0.0 0
M  V30 8 C -0.1045 -1.4945 0.0 0 CFG=2
M  V30 9 O -1.1214 0.8848 0.0 0
M  V30 10 N -1.5826 -0.8364 0.0 0
M  V30 11 C -0.6066 -2.7625 0.0 0
M  V30 12 C -1.0826 -1.7024 0.0 0
M  V30 13 C -2.1889 -2.058 0.0 0 CFG=1
M  V30 14 C -1.6011 -2.867 0.0 0
M  V30 15 C -3.1854 -2.1417 0.0 0
M  V30 16 O -3.7562 -1.3206 0.0 0
M  V30 17 N -3.6112 -3.0465 0.0 0
M  V30 END ATOM
M  V30 BEGIN BOND
M  V30 1 2 1 2
M  V30 2 2 1 3
M  V30 3 1 1 4
M  V30 4 1 1 5
M  V30 5 1 4 6
M  V30 6 1 6 7
M  V30 7 1 8 6 CFG=3
M  V30 8 2 7 9
M  V30 9 1 7 10
M  V30 10 1 8 11
M  V30 11 1 8 12
M  V30 12 1 13 10
M  V30 13 1 11 14
M  V30 14 1 13 15 CFG=1
M  V30 15 2 15 16
M  V30 16 1 15 17
M  V30 17 1 10 12
M  V30 18 1 13 14
M  V30 END BOND
M  V30 BEGIN COLLECTION
M  V30 MDLV30/STEABS ATOMS=(2 8 13)
M  V30 END COLLECTION
M  V30 END CTAB
M  END
>  <Column 1>
89

>  <Column 2>
PandemicResponseBox - Plate B

>  <Column 3>
A03

>  <Column 4>
MMV1613560

>  <Column 5>
10 mM

>  <Column 6>
ANTIBACTERIALS

>  <Column 7>
1

>  <Column 8>
Sodium

>  <Column 9>
Avibactam

>  <Column 10>
NC(=O)[C@@H]1CC[C@@H]2CN1C(=O)N2O[S](O)(=O)=O

>  <Column 11>
CHEMBL1689063

>  <Column 12>


>  <Column 13>
287.2

>  <Column 14>
C7 H10 N3 O6 S

>  <Tox-Glu>
ATCTOX

>  <Column 15>


>  <Column 16>
97 

>  <Column 17>
99 

>  <Column 18>
100 

>  <Column 19>


>  <Tox-Gal>
CTOXGAL

>  <Column 20>


>  <Column 21>
102 

>  <Column 22>
102 

>  <Column 23>
100 

>  <Column 24>


>  <Column 25>


>  <PAMPA>
PAMPA

>  <Column 26>
undetected

>  <Column 27>
low sensitivity

>  <Column 28>


>  <Mouse>
ATMETMOU

>  <Column 29>


>  <Column 30>
Not determined; Low sensitivity

$$$$
Compound 91
Actelion Java MolfileCreator 2.0

  0  0  0  0  0  0              0 V3000
M  V30 BEGIN CTAB
M  V30 COUNTS 21 23 0 0 0
M  V30 BEGIN ATOM
M  V30 1 Cl 4.3301 0.9999 0.0 0
M  V30 2 C 4.3301 0.0 0.0 0
M  V30 3 C 3.4641 -0.5 0.0 0
M  V30 4 C 5.1961 -0.5 0.0 0
M  V30 5 C 3.4641 -1.5 0.0 0
M  V30 6 C 2.598 0.0 0.0 0
M  V30 7 C 5.1961 -1.5 0.0 0
M  V30 8 C 4.3301 -2.0 0.0 0
M  V30 9 N 1.732 -0.5 0.0 0
M  V30 10 C 0.866 0.0 0.0 0
M  V30 11 O 0.866 1.0 0.0 0
M  V30 12 C 0.0 -0.5 0.0 0
M  V30 13 N -0.866 0.0 0.0 0
M  V30 14 C 0.0 -1.4999 0.0 0
M  V30 15 C -1.732 -0.4999 0.0 0
M  V30 16 N -0.866 -1.9999 0.0 0
M  V30 17 C -1.732 -1.4999 0.0 0
M  V30 18 C -2.598 0.0 0.0 0
M  V30 19 C -2.598 -1.9999 0.0 0
M  V30 20 C -3.4641 -0.4999 0.0 0
M  V30 21 C -3.4641 -1.4999 0.0 0
M  V30 END ATOM
M  V30 BEGIN BOND
M  V30 1 1 1 2
M  V30 2 2 2 3
M  V30 3 1 2 4
M  V30 4 1 3 5
M  V30 5 1 3 6
M  V30 6 2 4 7
M  V30 7 2 5 8
M  V30 8 1 6 9
M  V30 9 1 9 10
M  V30 10 2 10 11
M  V30 11 1 10 12
M  V30 12 2 12 13
M  V30 13 1 12 14
M  V30 14 1 13 15
M  V30 15 2 14 16
M  V30 16 1 15 17
M  V30 17 2 15 18
M  V30 18 2 17 19
M  V30 19 1 18 20
M  V30 20 1 19 21
M  V30 21 1 7 8
M  V30 22 1 16 17
M  V30 23 2 20 21
M  V30 END BOND
M  V30 END CTAB
M  END
>  <Column 1>
90

>  <Column 2>
PandemicResponseBox - Plate B

>  <Column 3>
B03

>  <Column 4>
MMV1230557

>  <Column 5>
10 mM

>  <Column 6>
ANTIBACTERIALS

>  <Column 7>


>  <Column 8>
None

>  <Column 9>


>  <Column 10>
Clc1ccccc1CNC(=O)c2cnc3ccccc3n2

>  <Column 11>
CHEMBL1302567

>  <Column 12>


>  <Column 13>
297.7

>  <Column 14>
C16H12ClN3O

>  <Tox-Glu>
ATCTOX

>  <Column 15>


>  <Column 16>
101 

>  <Column 17>
97 

>  <Column 18>
68 

>  <Column 19>


>  <Tox-Gal>
CTOXGAL

>  <Column 20>


>  <Column 21>
99 

>  <Column 22>
95 

>  <Column 23>
21 

>  <Column 24>


>  <Column 25>


>  <PAMPA>
PAMPA

>  <Column 26>
583

>  <Column 27>


>  <Column 28>


>  <Mouse>
ATMETMOU

>  <Column 29>
595

>  <Column 30>


$$$$
Compound 92
Actelion Java MolfileCreator 2.0

  0  0  0  0  0  0              0 V3000
M  V30 BEGIN CTAB
M  V30 COUNTS 43 49 0 0 0
M  V30 BEGIN ATOM
M  V30 1 F 5.1961 -0.4999 0.0 0
M  V30 2 C 4.3301 0.0 0.0 0
M  V30 3 C 3.4641 -0.5 0.0 0
M  V30 4 C 4.3301 1.0 0.0 0
M  V30 5 C 2.598 0.0 0.0 0
M  V30 6 C 3.4641 -1.4999 0.0 0
M  V30 7 C 3.4641 1.5 0.0 0
M  V30 8 C 2.598 0.9999 0.0 0
M  V30 9 N 2.598 -2.0 0.0 0
M  V30 10 F 3.4641 2.4999 0.0 0
M  V30 11 C 1.732 -1.5 0.0 0
M  V30 12 C 2.598 -2.9999 0.0 0
M  V30 13 C 1.732 -0.5 0.0 0
M  V30 14 C 3.4641 -3.4999 0.0 0
M  V30 15 O 0.866 0.0 0.0 0
M  V30 16 N 3.4641 -4.5 0.0 0
M  V30 17 C 0.0 -0.5 0.0 0
M  V30 18 N 4.2731 -5.0877 0.0 0
M  V30 19 C 2.655 -5.0877 0.0 0
M  V30 20 C 0.0 -1.5 0.0 0
M  V30 21 C -0.866 0.0 0.0 0
M  V30 22 C 3.9641 -6.0388 0.0 0
M  V30 23 N 2.9641 -6.0388 0.0 0
M  V30 24 O 0.866 -2.0 0.0 0
M  V30 25 C -0.866 -1.9999 0.0 0
M  V30 26 C -1.732 -0.4999 0.0 0
M  V30 27 C -0.866 0.9999 0.0 0
M  V30 28 C 0.866 -3.0 0.0 0
M  V30 29 C -1.732 -1.4999 0.0 0
M  V30 30 C -2.598 0.0 0.0 0
M  V30 31 N -1.732 1.5 0.0 0 CHG=1
M  V30 32 C -2.598 1.0 0.0 0
M  V30 33 C -1.732 2.5 0.0 0
M  V30 34 C -3.4641 1.5 0.0 0
M  V30 35 C -2.598 3.0 0.0 0
M  V30 36 C -3.4641 2.5 0.0 0
M  V30 37 C -4.3301 1.0 0.0 0
M  V30 38 C -4.3301 3.0 0.0 0
M  V30 39 C -5.1961 1.5 0.0 0
M  V30 40 C -5.1961 2.5 0.0 0
M  V30 41 O -6.1472 1.1909 0.0 0
M  V30 42 O -6.1472 2.809 0.0 0
M  V30 43 C -6.7349 2.0 0.0 0
M  V30 END ATOM
M  V30 BEGIN BOND
M  V30 1 1 1 2
M  V30 2 2 2 3
M  V30 3 1 2 4
M  V30 4 1 3 5
M  V30 5 1 3 6
M  V30 6 2 4 7
M  V30 7 2 5 8
M  V30 8 1 6 9
M  V30 9 1 7 10
M  V30 10 1 9 11
M  V30 11 1 9 12
M  V30 12 1 11 13
M  V30 13 1 12 14
M  V30 14 1 13 15
M  V30 15 1 14 16
M  V30 16 1 15 17
M  V30 17 1 16 18
M  V30 18 1 16 19
M  V30 19 2 17 20
M  V30 20 1 17 21
M  V30 21 2 18 22
M  V30 22 2 19 23
M  V30 23 1 20 24
M  V30 24 1 20 25
M  V30 25 1 21 26
M  V30 26 2 21 27
M  V30 27 1 24 28
M  V30 28 2 25 29
M  V30 29 2 26 30
M  V30 30 1 27 31
M  V30 31 1 30 32
M  V30 32 1 31 33
M  V30 33 1 32 34
M  V30 34 1 33 35
M  V30 35 2 34 36
M  V30 36 1 34 37
M  V30 37 1 36 38
M  V30 38 2 37 39
M  V30 39 2 38 40
M  V30 40 1 39 41
M  V30 41 1 40 42
M  V30 42 1 41 43
M  V30 43 1 7 8
M  V30 44 1 22 23
M  V30 45 1 26 29
M  V30 46 2 31 32
M  V30 47 1 35 36
M  V30 48 1 39 40
M  V30 49 1 42 43
M  V30 END BOND
M  V30 END CTAB
M  END
>  <Column 1>
91

>  <Column 2>
PandemicResponseBox - Plate B

>  <Column 3>
C03

>  <Column 4>
MMV1593540

>  <Column 5>
10 mM

>  <Column 6>
ANTIBACTERIALS

>  <Column 7>
1

>  <Column 8>
Chloride

>  <Column 9>


>  <Column 10>
COC1=C(OCCN(CC[N]2C=NC=N2)CC3=C(F)C=C(F)C=C3)C4=C[N+]5=C(C=C4C=C1)C6=C(CC5)C=C7OCOC7=C6

>  <Column 11>
CHEMBL2365952

>  <Column 12>


>  <Column 13>
622

>  <Column 14>
C32 H30 F2 N5 O4

>  <Tox-Glu>
ATCTOX

>  <Column 15>


>  <Column 16>
94 

>  <Column 17>
86 

>  <Column 18>
37 

>  <Column 19>


>  <Tox-Gal>
CTOXGAL

>  <Column 20>


>  <Column 21>
91 

>  <Column 22>
72 

>  <Column 23>
1 

>  <Column 24>


>  <Column 25>


>  <PAMPA>
PAMPA

>  <Column 26>
<1

>  <Column 27>


>  <Column 28>


>  <Mouse>
ATMETMOU

>  <Column 29>
>768

>  <Column 30>


$$$$
Compound 93
Actelion Java MolfileCreator 2.0

  0  0  0  0  0  0              0 V3000
M  V30 BEGIN CTAB
M  V30 COUNTS 23 26 0 0 0
M  V30 BEGIN ATOM
M  V30 1 O 6.755 -1.9815 0.0 0
M  V30 2 N 6.446 -1.0304 0.0 0 CHG=1
M  V30 3 O 7.1151 -0.2873 0.0 0 CHG=-1
M  V30 4 C 5.4679 -0.8225 0.0 0
M  V30 5 C 5.1588 0.1284 0.0 0
M  V30 6 C 4.7987 -1.5657 0.0 0
M  V30 7 C 4.1807 0.3364 0.0 0
M  V30 8 C 3.8206 -1.3577 0.0 0
M  V30 9 N 3.6807 1.2024 0.0 0
M  V30 10 C 3.5116 -0.4067 0.0 0
M  V30 11 C 2.7026 0.9945 0.0 0
M  V30 12 C 2.598 0.0 0.0 0
M  V30 13 C 1.732 -0.5 0.0 0
M  V30 14 C 0.866 0.0 0.0 0
M  V30 15 C 0.0 -0.5 0.0 0
M  V30 16 C -0.9135 -0.0932 0.0 0
M  V30 17 C -0.1045 -1.4945 0.0 0
M  V30 18 C -1.5826 -0.8364 0.0 0
M  V30 19 C -1.2225 0.8577 0.0 0
M  V30 20 N -1.0826 -1.7024 0.0 0
M  V30 21 C -2.5608 -0.6284 0.0 0
M  V30 22 C -2.2007 1.0657 0.0 0
M  V30 23 C -2.8698 0.3225 0.0 0
M  V30 END ATOM
M  V30 BEGIN BOND
M  V30 1 2 1 2
M  V30 2 1 2 3
M  V30 3 1 2 4
M  V30 4 2 4 5
M  V30 5 1 4 6
M  V30 6 1 5 7
M  V30 7 2 6 8
M  V30 8 1 7 9
M  V30 9 2 7 10
M  V30 10 1 9 11
M  V30 11 1 10 12
M  V30 12 1 12 13
M  V30 13 1 13 14
M  V30 14 1 14 15
M  V30 15 1 15 16
M  V30 16 2 15 17
M  V30 17 2 16 18
M  V30 18 1 16 19
M  V30 19 1 17 20
M  V30 20 1 18 21
M  V30 21 2 19 22
M  V30 22 2 21 23
M  V30 23 1 8 10
M  V30 24 2 11 12
M  V30 25 1 18 20
M  V30 26 1 22 23
M  V30 END BOND
M  V30 END CTAB
M  END
>  <Column 1>
92

>  <Column 2>
PandemicResponseBox - Plate B

>  <Column 3>
D03

>  <Column 4>
MMV1593539

>  <Column 5>
10 mM

>  <Column 6>
ANTIBACTERIALS

>  <Column 7>


>  <Column 8>
None

>  <Column 9>


>  <Column 10>
O=N(=O)c1ccc2c(CCc3c[nH]c4ccccc34)c[nH]c2c1

>  <Column 11>
CHEMBL3339205

>  <Column 12>


>  <Column 13>
305.3

>  <Column 14>
C18 H15 N3 O2

>  <Tox-Glu>
ATCTOX

>  <Column 15>


>  <Column 16>
51 

>  <Column 17>
0 

>  <Column 18>
0 

>  <Column 19>


>  <Tox-Gal>
CTOXGAL

>  <Column 20>


>  <Column 21>
0 

>  <Column 22>
0 

>  <Column 23>
0 

>  <Column 24>


>  <Column 25>


>  <PAMPA>
PAMPA

>  <Column 26>
69

>  <Column 27>


>  <Column 28>


>  <Mouse>
ATMETMOU

>  <Column 29>
255

>  <Column 30>


$$$$
Compound 94
Actelion Java MolfileCreator 2.0

  0  0  0  0  0  0              0 V3000
M  V30 BEGIN CTAB
M  V30 COUNTS 20 23 0 0 0
M  V30 BEGIN ATOM
M  V30 1 O 3.672 2.4781 0.0 0
M  V30 2 C 3.4641 1.4999 0.0 0
M  V30 3 C 4.6665 2.5826 0.0 0
M  V30 4 C 4.3301 1.0 0.0 0
M  V30 5 C 2.598 0.9999 0.0 0
M  V30 6 O 5.0732 1.6691 0.0 0
M  V30 7 C 4.3301 0.0 0.0 0
M  V30 8 C 2.598 0.0 0.0 0
M  V30 9 C 3.4641 -0.5 0.0 0
M  V30 10 C 1.732 -0.5 0.0 0
M  V30 11 C 0.866 0.0 0.0 0
M  V30 12 C 0.0 -0.5 0.0 0
M  V30 13 N -0.9135 -0.0932 0.0 0
M  V30 14 N -0.1045 -1.4945 0.0 0
M  V30 15 C -1.5826 -0.8364 0.0 0
M  V30 16 C -1.0826 -1.7024 0.0 0
M  V30 17 C -2.5826 -0.8364 0.0 0
M  V30 18 C -1.5826 -2.5684 0.0 0
M  V30 19 C -3.0826 -1.7024 0.0 0
M  V30 20 C -2.5826 -2.5684 0.0 0
M  V30 END ATOM
M  V30 BEGIN BOND
M  V30 1 1 1 2
M  V30 2 1 1 3
M  V30 3 2 2 4
M  V30 4 1 2 5
M  V30 5 1 3 6
M  V30 6 1 4 7
M  V30 7 2 5 8
M  V30 8 2 7 9
M  V30 9 1 8 10
M  V30 10 2 10 11
M  V30 11 1 11 12
M  V30 12 2 12 13
M  V30 13 1 12 14
M  V30 14 1 13 15
M  V30 15 1 14 16
M  V30 16 1 15 17
M  V30 17 1 16 18
M  V30 18 2 17 19
M  V30 19 2 18 20
M  V30 20 1 4 6
M  V30 21 1 8 9
M  V30 22 2 15 16
M  V30 23 1 19 20
M  V30 END BOND
M  V30 END CTAB
M  END
>  <Column 1>
93

>  <Column 2>
PandemicResponseBox - Plate B

>  <Column 3>
E03

>  <Column 4>
MMV1582495

>  <Column 5>
10 mM

>  <Column 6>
ANTIBACTERIALS

>  <Column 7>


>  <Column 8>
None

>  <Column 9>


>  <Column 10>
C1Oc2ccc(\C=C\c3nc4ccccc4[nH]3)cc2O1

>  <Column 11>
CHEMBL2299414

>  <Column 12>


>  <Column 13>
264.3

>  <Column 14>
C16 H12 N2 O2

>  <Tox-Glu>
ATCTOX

>  <Column 15>


>  <Column 16>
80 

>  <Column 17>
48 

>  <Column 18>
10 

>  <Column 19>


>  <Tox-Gal>
CTOXGAL

>  <Column 20>


>  <Column 21>
77 

>  <Column 22>
40 

>  <Column 23>
0 

>  <Column 24>


>  <Column 25>


>  <PAMPA>
PAMPA

>  <Column 26>
346

>  <Column 27>


>  <Column 28>


>  <Mouse>
ATMETMOU

>  <Column 29>
>768

>  <Column 30>


$$$$
Compound 95
Actelion Java MolfileCreator 2.0

  0  0  0  0  0  0              0 V3000
M  V30 BEGIN CTAB
M  V30 COUNTS 19 18 0 0 0
M  V30 BEGIN ATOM
M  V30 1 P 11.6913 1.5 0.0 0
M  V30 2 O 10.1914 1.4999 0.0 0
M  V30 3 O 10.9414 2.799 0.0 0
M  V30 4 C 12.9904 2.25 0.0 0
M  V30 5 C 11.6913 0.0 0.0 0
M  V30 6 N 12.9904 3.75 0.0 0
M  V30 7 C 14.2894 1.5 0.0 0
M  V30 8 C 10.3923 -0.75 0.0 0
M  V30 9 C 10.3923 -2.25 0.0 0
M  V30 10 C 9.0932 0.0 0.0 0
M  V30 11 O 9.0932 -3.0 0.0 0
M  V30 12 O 11.6913 -3.0 0.0 0
M  V30 13 C 7.7942 -0.75 0.0 0
M  V30 14 C 6.4952 0.0 0.0 0
M  V30 15 C 5.1961 -0.75 0.0 0
M  V30 16 C 3.8971 0.0 0.0 0
M  V30 17 C 2.598 -0.75 0.0 0
M  V30 18 C 1.299 0.0 0.0 0
M  V30 19 C 0.0 -0.75 0.0 0
M  V30 END ATOM
M  V30 BEGIN BOND
M  V30 1 2 1 2
M  V30 2 1 1 3
M  V30 3 1 1 4
M  V30 4 1 1 5
M  V30 5 1 4 6
M  V30 6 1 4 7
M  V30 7 1 5 8
M  V30 8 1 8 9
M  V30 9 1 8 10
M  V30 10 2 9 11
M  V30 11 1 9 12
M  V30 12 1 10 13
M  V30 13 1 13 14
M  V30 14 1 14 15
M  V30 15 1 15 16
M  V30 16 1 16 17
M  V30 17 1 17 18
M  V30 18 1 18 19
M  V30 END BOND
M  V30 END CTAB
M  END
>  <Column 1>
94

>  <Column 2>
PandemicResponseBox - Plate B

>  <Column 3>
F03

>  <Column 4>
MMV1582487

>  <Column 5>
10 mM

>  <Column 6>
ANTIBACTERIALS

>  <Column 7>


>  <Column 8>
None

>  <Column 9>


>  <Column 10>
CCCCCCCCC(CP(=O)(O)C(C)N)C(=O)O

>  <Column 11>
CHEMBL198796

>  <Column 12>


>  <Column 13>
293.3

>  <Column 14>
C13 H28 N O4 P

>  <Tox-Glu>
ATCTOX

>  <Column 15>


>  <Column 16>
100 

>  <Column 17>
100 

>  <Column 18>
98 

>  <Column 19>


>  <Tox-Gal>
CTOXGAL

>  <Column 20>


>  <Column 21>
98 

>  <Column 22>
100 

>  <Column 23>
100 

>  <Column 24>


>  <Column 25>


>  <PAMPA>
PAMPA

>  <Column 26>
undetected

>  <Column 27>
low sensitivity

>  <Column 28>


>  <Mouse>
ATMETMOU

>  <Column 29>
-20

>  <Column 30>
Low sensitivity

$$$$
Compound 96
Actelion Java MolfileCreator 2.0

  0  0  0  0  0  0              0 V3000
M  V30 BEGIN CTAB
M  V30 COUNTS 19 21 0 0 0
M  V30 BEGIN ATOM
M  V30 1 S 1.299 0.0 0.0 0
M  V30 2 C 2.598 -0.75 0.0 0
M  V30 3 C 1.299 1.5 0.0 0
M  V30 4 C 2.598 -2.25 0.0 0
M  V30 5 C 3.8971 0.0 0.0 0
M  V30 6 C 0.0 2.2499 0.0 0
M  V30 7 C 2.598 2.25 0.0 0
M  V30 8 C 1.299 -3.0 0.0 0
M  V30 9 C 3.8971 -3.0 0.0 0
M  V30 10 C 5.1961 -0.75 0.0 0
M  V30 11 C 0.0 3.7499 0.0 0
M  V30 12 C 2.598 3.75 0.0 0
M  V30 13 N 1.299 -4.5 0.0 0
M  V30 14 N 0.0 -2.25 0.0 0
M  V30 15 N 3.8971 -4.5 0.0 0
M  V30 16 C 5.1961 -2.25 0.0 0
M  V30 17 C 1.299 4.5 0.0 0
M  V30 18 C 2.598 -5.25 0.0 0
M  V30 19 N 2.598 -6.75 0.0 0
M  V30 END ATOM
M  V30 BEGIN BOND
M  V30 1 1 1 2
M  V30 2 1 1 3
M  V30 3 1 2 4
M  V30 4 2 2 5
M  V30 5 2 3 6
M  V30 6 1 3 7
M  V30 7 2 4 8
M  V30 8 1 4 9
M  V30 9 1 5 10
M  V30 10 1 6 11
M  V30 11 2 7 12
M  V30 12 1 8 13
M  V30 13 1 8 14
M  V30 14 2 9 15
M  V30 15 1 9 16
M  V30 16 2 11 17
M  V30 17 2 13 18
M  V30 18 1 18 19
M  V30 19 2 10 16
M  V30 20 1 12 17
M  V30 21 1 15 18
M  V30 END BOND
M  V30 END CTAB
M  END
>  <Column 1>
95

>  <Column 2>
PandemicResponseBox - Plate B

>  <Column 3>
G03

>  <Column 4>
MMV021759

>  <Column 5>
10 mM

>  <Column 6>
ANTIBACTERIALS

>  <Column 7>


>  <Column 8>
None

>  <Column 9>


>  <Column 10>
Nc1nc(N)c2c(Sc3ccccc3)cccc2n1

>  <Column 11>
CHEMBL100239

>  <Column 12>


>  <Column 13>
268.3

>  <Column 14>
C14H12N4S

>  <Tox-Glu>
ATCTOX

>  <Column 15>


>  <Column 16>
78 

>  <Column 17>
54 

>  <Column 18>
2 

>  <Column 19>


>  <Tox-Gal>
CTOXGAL

>  <Column 20>


>  <Column 21>
85 

>  <Column 22>
0 

>  <Column 23>
1 

>  <Column 24>


>  <Column 25>


>  <PAMPA>
PAMPA

>  <Column 26>
534

>  <Column 27>


>  <Column 28>


>  <Mouse>
ATMETMOU

>  <Column 29>
167

>  <Column 30>


$$$$
Compound 97
Actelion Java MolfileCreator 2.0

  0  0  0  0  0  0              0 V3000
M  V30 BEGIN CTAB
M  V30 COUNTS 24 27 0 0 0
M  V30 BEGIN ATOM
M  V30 1 N 2.598 0.0 0.0 0
M  V30 2 C 1.732 -0.5 0.0 0
M  V30 3 C 3.4641 -0.4999 0.0 0
M  V30 4 N 1.732 -1.5 0.0 0
M  V30 5 N 0.866 0.0 0.0 0
M  V30 6 N 3.4641 -1.4999 0.0 0
M  V30 7 N 4.3301 0.0 0.0 0
M  V30 8 C 2.598 -1.9999 0.0 0
M  V30 9 C 0.0 -0.5 0.0 0
M  V30 10 C 2.598 -2.9999 0.0 0
M  V30 11 C -0.9135 -0.0932 0.0 0
M  V30 12 C -0.1045 -1.4945 0.0 0
M  V30 13 C 1.732 -3.5 0.0 0
M  V30 14 C 3.4641 -3.4999 0.0 0
M  V30 15 C -1.5826 -0.8364 0.0 0
M  V30 16 C -1.0826 -1.7024 0.0 0
M  V30 17 C 1.732 -4.5 0.0 0
M  V30 18 C 3.4641 -4.4999 0.0 0
M  V30 19 C -2.5826 -0.8364 0.0 0
M  V30 20 C -1.5826 -2.5684 0.0 0
M  V30 21 N 0.866 -5.0 0.0 0
M  V30 22 C 2.598 -4.9999 0.0 0
M  V30 23 C -3.0826 -1.7024 0.0 0
M  V30 24 C -2.5826 -2.5684 0.0 0
M  V30 END ATOM
M  V30 BEGIN BOND
M  V30 1 2 1 2
M  V30 2 1 1 3
M  V30 3 1 2 4
M  V30 4 1 2 5
M  V30 5 2 3 6
M  V30 6 1 3 7
M  V30 7 2 4 8
M  V30 8 1 5 9
M  V30 9 1 8 10
M  V30 10 1 9 11
M  V30 11 1 9 12
M  V30 12 2 10 13
M  V30 13 1 10 14
M  V30 14 1 11 15
M  V30 15 1 12 16
M  V30 16 1 13 17
M  V30 17 2 14 18
M  V30 18 1 15 19
M  V30 19 1 16 20
M  V30 20 1 17 21
M  V30 21 2 17 22
M  V30 22 2 19 23
M  V30 23 2 20 24
M  V30 24 1 6 8
M  V30 25 2 15 16
M  V30 26 1 18 22
M  V30 27 1 23 24
M  V30 END BOND
M  V30 END CTAB
M  END
>  <Column 1>
96

>  <Column 2>
PandemicResponseBox - Plate B

>  <Column 3>
H03

>  <Column 4>
MMV1581555

>  <Column 5>
10 mM

>  <Column 6>
ANTIBACTERIALS

>  <Column 7>


>  <Column 8>
None

>  <Column 9>


>  <Column 10>
Nc1cccc(c1)c2nc(N)nc(NC3Cc4ccccc4C3)n2

>  <Column 11>
CHEMBL127777

>  <Column 12>


>  <Column 13>
318.4

>  <Column 14>
C18 H18 N6

>  <Tox-Glu>
ATCTOX

>  <Column 15>


>  <Column 16>
100 

>  <Column 17>
91 

>  <Column 18>
61 

>  <Column 19>


>  <Tox-Gal>
CTOXGAL

>  <Column 20>


>  <Column 21>
95 

>  <Column 22>
96 

>  <Column 23>
47 

>  <Column 24>


>  <Column 25>


>  <PAMPA>
PAMPA

>  <Column 26>
458

>  <Column 27>


>  <Column 28>


>  <Mouse>
ATMETMOU

>  <Column 29>
28

>  <Column 30>


$$$$
Compound 98
Actelion Java MolfileCreator 2.0

  0  0  0  0  0  0              0 V3000
M  V30 BEGIN CTAB
M  V30 COUNTS 24 25 0 0 0
M  V30 BEGIN ATOM
M  V30 1 O 9.7817 0.1151 0.0 0
M  V30 2 C 9.5737 1.0932 0.0 0
M  V30 3 O 10.2429 1.8364 0.0 0
M  V30 4 C 8.6602 1.4999 0.0 0 CFG=1
M  V30 5 C 9.7429 2.7024 0.0 0
M  V30 6 N 7.7942 0.9999 0.0 0
M  V30 7 C 8.7647 2.4945 0.0 0
M  V30 8 C 6.9282 1.4999 0.0 0
M  V30 9 O 6.9282 2.4999 0.0 0
M  V30 10 C 6.0621 0.9999 0.0 0
M  V30 11 C 5.1961 1.4999 0.0 0
M  V30 12 C 6.0621 0.0 0.0 0
M  V30 13 C 4.3301 0.9999 0.0 0
M  V30 14 C 5.1961 -0.5 0.0 0
M  V30 15 C 4.3301 0.0 0.0 0
M  V30 16 C 3.4641 -0.5 0.0 0
M  V30 17 N 2.598 0.0 0.0 0
M  V30 18 C 1.732 -0.5 0.0 0
M  V30 19 O 1.732 -1.5 0.0 0
M  V30 20 O 0.866 0.0 0.0 0
M  V30 21 C 0.0 -0.5 0.0 0
M  V30 22 C 0.4999 -1.366 0.0 0
M  V30 23 C -0.866 -0.9999 0.0 0
M  V30 24 C -0.4999 0.366 0.0 0
M  V30 END ATOM
M  V30 BEGIN BOND
M  V30 1 2 1 2
M  V30 2 1 2 3
M  V30 3 1 4 2
M  V30 4 1 3 5
M  V30 5 1 4 6 CFG=1
M  V30 6 1 4 7
M  V30 7 1 6 8
M  V30 8 2 8 9
M  V30 9 1 8 10
M  V30 10 2 10 11
M  V30 11 1 10 12
M  V30 12 1 11 13
M  V30 13 2 12 14
M  V30 14 2 13 15
M  V30 15 1 15 16
M  V30 16 1 16 17
M  V30 17 1 17 18
M  V30 18 2 18 19
M  V30 19 1 18 20
M  V30 20 1 20 21
M  V30 21 1 21 22
M  V30 22 1 21 23
M  V30 23 1 21 24
M  V30 24 1 5 7
M  V30 25 1 14 15
M  V30 END BOND
M  V30 BEGIN COLLECTION
M  V30 MDLV30/STEABS ATOMS=(1 4)
M  V30 END COLLECTION
M  V30 END CTAB
M  END
>  <Column 1>
97

>  <Column 2>
PandemicResponseBox - Plate B

>  <Column 3>
A04

>  <Column 4>
MMV1581547

>  <Column 5>
10 mM

>  <Column 6>
ANTIBACTERIALS

>  <Column 7>


>  <Column 8>
None

>  <Column 9>


>  <Column 10>
CC(C)(C)OC(=O)NCc1ccc(cc1)C(=O)N[C@H]2CCOC2=O

>  <Column 11>
CHEMBL259440

>  <Column 12>


>  <Column 13>
334.4

>  <Column 14>
C17 H22 N2 O5

>  <Tox-Glu>
ATCTOX

>  <Column 15>


>  <Column 16>
101 

>  <Column 17>
97 

>  <Column 18>
99 

>  <Column 19>


>  <Tox-Gal>
CTOXGAL

>  <Column 20>


>  <Column 21>
101 

>  <Column 22>
102 

>  <Column 23>
104 

>  <Column 24>


>  <Column 25>


>  <PAMPA>
PAMPA

>  <Column 26>
66

>  <Column 27>


>  <Column 28>


>  <Mouse>
ATMETMOU

>  <Column 29>
51

>  <Column 30>
Large variations

$$$$
Compound 99
Actelion Java MolfileCreator 2.0

  0  0  0  0  0  0              0 V3000
M  V30 BEGIN CTAB
M  V30 COUNTS 33 37 0 0 0
M  V30 BEGIN ATOM
M  V30 1 Cl 0.0 4.4999 0.0 0
M  V30 2 C 0.866 3.9999 0.0 0
M  V30 3 C 0.866 2.9999 0.0 0
M  V30 4 C 1.732 4.4999 0.0 0
M  V30 5 C 1.732 2.5 0.0 0
M  V30 6 C 2.598 3.9999 0.0 0
M  V30 7 C 2.598 2.9999 0.0 0
M  V30 8 N 3.4641 2.5 0.0 0
M  V30 9 C 3.4641 1.5 0.0 0
M  V30 10 C 4.3301 3.0 0.0 0
M  V30 11 C 4.3301 1.0 0.0 0
M  V30 12 C 2.598 1.0 0.0 0
M  V30 13 C 5.1961 2.4999 0.0 0
M  V30 14 C 4.3301 3.9999 0.0 0
M  V30 15 N 5.1961 1.5 0.0 0
M  V30 16 C 4.3301 0.0 0.0 0
M  V30 17 C 2.598 0.0 0.0 0
M  V30 18 C 6.0621 3.0 0.0 0
M  V30 19 C 5.1961 4.5 0.0 0
M  V30 20 C 3.4641 -0.4999 0.0 0
M  V30 21 N 1.732 -0.5 0.0 0
M  V30 22 C 6.0621 4.0 0.0 0
M  V30 23 N 3.4641 -1.4999 0.0 0
M  V30 24 C 0.866 0.0 0.0 0
M  V30 25 C 4.3301 -1.9999 0.0 0
M  V30 26 C 0.866 1.0 0.0 0
M  V30 27 C 0.0 -0.5 0.0 0
M  V30 28 C 4.3301 -2.9999 0.0 0
M  V30 29 C 5.1961 -1.4999 0.0 0
M  V30 30 C 5.1961 -3.4999 0.0 0
M  V30 31 C 6.0621 -1.9999 0.0 0
M  V30 32 C 6.0621 -2.9999 0.0 0
M  V30 33 Cl 6.9282 -3.4999 0.0 0
M  V30 END ATOM
M  V30 BEGIN BOND
M  V30 1 1 1 2
M  V30 2 2 2 3
M  V30 3 1 2 4
M  V30 4 1 3 5
M  V30 5 2 4 6
M  V30 6 2 5 7
M  V30 7 1 7 8
M  V30 8 1 8 9
M  V30 9 1 8 10
M  V30 10 1 9 11
M  V30 11 2 9 12
M  V30 12 2 10 13
M  V30 13 1 10 14
M  V30 14 2 11 15
M  V30 15 1 11 16
M  V30 16 1 12 17
M  V30 17 1 13 18
M  V30 18 2 14 19
M  V30 19 2 16 20
M  V30 20 2 17 21
M  V30 21 2 18 22
M  V30 22 1 20 23
M  V30 23 1 21 24
M  V30 24 1 23 25
M  V30 25 1 24 26
M  V30 26 1 24 27
M  V30 27 2 25 28
M  V30 28 1 25 29
M  V30 29 1 28 30
M  V30 30 2 29 31
M  V30 31 2 30 32
M  V30 32 1 32 33
M  V30 33 1 6 7
M  V30 34 1 13 15
M  V30 35 1 17 20
M  V30 36 1 19 22
M  V30 37 1 31 32
M  V30 END BOND
M  V30 END CTAB
M  END
>  <Column 1>
98

>  <Column 2>
PandemicResponseBox - Plate B

>  <Column 3>
B04

>  <Column 4>
MMV687800

>  <Column 5>
10 mM

>  <Column 6>
ANTIBACTERIALS

>  <Column 7>


>  <Column 8>
None

>  <Column 9>
Clofazimine

>  <Column 10>
CC(C)\N=C\1/C=C2N(c3ccc(Cl)cc3)c4ccccc4N=C2C=C1Nc5ccc(Cl)cc5

>  <Column 11>
CHEMBL1292

>  <Column 12>


>  <Column 13>
473.4

>  <Column 14>
C27H22Cl2N4

>  <Tox-Glu>
ATCTOX

>  <Column 15>


>  <Column 16>
1 

>  <Column 17>
0 

>  <Column 18>
1 

>  <Column 19>


>  <Tox-Gal>
CTOXGAL

>  <Column 20>


>  <Column 21>
0 

>  <Column 22>
0 

>  <Column 23>
1 

>  <Column 24>


>  <Column 25>


>  <PAMPA>
PAMPA

>  <Column 26>
66

>  <Column 27>


>  <Column 28>


>  <Mouse>
ATMETMOU

>  <Column 29>
10

>  <Column 30>
Large variations

$$$$
Compound 100
Actelion Java MolfileCreator 2.0

  0  0  0  0  0  0              0 V3000
M  V30 BEGIN CTAB
M  V30 COUNTS 30 33 0 0 0
M  V30 BEGIN ATOM
M  V30 1 S 1.299 0.0 0.0 0
M  V30 2 O 0.549 -1.299 0.0 0
M  V30 3 O -0.2009 0.0 0.0 0
M  V30 4 C 2.598 -0.75 0.0 0
M  V30 5 C 1.299 1.5 0.0 0
M  V30 6 C 2.598 -2.25 0.0 0
M  V30 7 C 3.8971 0.0 0.0 0
M  V30 8 C 0.0 2.25 0.0 0
M  V30 9 C 2.598 2.25 0.0 0
M  V30 10 C 3.8971 -3.0 0.0 0
M  V30 11 C 5.1961 -0.75 0.0 0
M  V30 12 C 0.0 3.75 0.0 0
M  V30 13 C 2.598 3.75 0.0 0
M  V30 14 C 3.8971 -4.5 0.0 0
M  V30 15 C 5.1961 -2.25 0.0 0
M  V30 16 C 1.299 4.5 0.0 0
M  V30 17 N 2.598 -5.25 0.0 0
M  V30 18 C 5.1961 -5.25 0.0 0
M  V30 19 N 6.4951 -3.0 0.0 0
M  V30 20 C 1.299 -4.5 0.0 0
M  V30 21 C 5.1961 -6.75 0.0 0
M  V30 22 C 6.4951 -4.5 0.0 0
M  V30 23 C 0.0 -5.25 0.0 0
M  V30 24 C 1.299 -3.0 0.0 0
M  V30 25 O 3.8971 -7.5 0.0 0
M  V30 26 N 6.4951 -7.5 0.0 0
M  V30 27 C -1.299 -4.5 0.0 0
M  V30 28 C 0.0 -2.25 0.0 0
M  V30 29 C -1.299 -3.0 0.0 0
M  V30 30 O -2.598 -2.25 0.0 0
M  V30 END ATOM
M  V30 BEGIN BOND
M  V30 1 2 1 2
M  V30 2 2 1 3
M  V30 3 1 1 4
M  V30 4 1 1 5
M  V30 5 2 4 6
M  V30 6 1 4 7
M  V30 7 2 5 8
M  V30 8 1 5 9
M  V30 9 1 6 10
M  V30 10 2 7 11
M  V30 11 1 8 12
M  V30 12 2 9 13
M  V30 13 2 10 14
M  V30 14 1 10 15
M  V30 15 2 12 16
M  V30 16 1 14 17
M  V30 17 1 14 18
M  V30 18 2 15 19
M  V30 19 1 17 20
M  V30 20 1 18 21
M  V30 21 2 18 22
M  V30 22 2 20 23
M  V30 23 1 20 24
M  V30 24 2 21 25
M  V30 25 1 21 26
M  V30 26 1 23 27
M  V30 27 2 24 28
M  V30 28 2 27 29
M  V30 29 1 29 30
M  V30 30 1 11 15
M  V30 31 1 13 16
M  V30 32 1 19 22
M  V30 33 1 28 29
M  V30 END BOND
M  V30 END CTAB
M  END
>  <Column 1>
99

>  <Column 2>
PandemicResponseBox - Plate B

>  <Column 3>
C04

>  <Column 4>
MMV1580848

>  <Column 5>
10 mM

>  <Column 6>
ANTIBACTERIALS

>  <Column 7>


>  <Column 8>
None

>  <Column 9>


>  <Column 10>
NC(=O)c1cnc2ccc(cc2c1Nc3ccc(O)cc3)S(=O)(=O)c4ccccc4

>  <Column 11>
CHEMBL2098238

>  <Column 12>


>  <Column 13>
419.5

>  <Column 14>
C22 H17 N3 O4 S

>  <Tox-Glu>
ATCTOX

>  <Column 15>


>  <Column 16>
111 

>  <Column 17>
104 

>  <Column 18>
90 

>  <Column 19>


>  <Tox-Gal>
CTOXGAL

>  <Column 20>


>  <Column 21>
100 

>  <Column 22>
102 

>  <Column 23>
93 

>  <Column 24>


>  <Column 25>


>  <PAMPA>
PAMPA

>  <Column 26>
45

>  <Column 27>


>  <Column 28>


>  <Mouse>
ATMETMOU

>  <Column 29>
44

>  <Column 30>


$$$$
Compound 101
Actelion Java MolfileCreator 2.0

  0  0  0  0  0  0              0 V3000
M  V30 BEGIN CTAB
M  V30 COUNTS 33 37 0 0 0
M  V30 BEGIN ATOM
M  V30 1 Cl 11.6422 2.0304 0.0 0
M  V30 2 C 10.664 1.8225 0.0 0
M  V30 3 C 9.9949 2.5657 0.0 0
M  V30 4 C 10.355 0.8715 0.0 0
M  V30 5 Cl 10.3039 3.5167 0.0 0
M  V30 6 C 9.0167 2.3577 0.0 0
M  V30 7 C 9.3769 0.6635 0.0 0
M  V30 8 C 8.7077 1.4067 0.0 0
M  V30 9 N 8.8769 -0.2024 0.0 0
M  V30 10 N 7.7942 0.9999 0.0 0
M  V30 11 C 7.8987 0.0054 0.0 0
M  V30 12 C 6.9282 1.4999 0.0 0
M  V30 13 C 7.1556 -0.6636 0.0 0
M  V30 14 C 6.9282 2.4999 0.0 0
M  V30 15 C 6.2045 -0.3546 0.0 0
M  V30 16 C 7.3635 -1.6418 0.0 0
M  V30 17 C 6.0621 2.9999 0.0 0
M  V30 18 C 7.7942 2.9999 0.0 0
M  V30 19 C 5.4614 -1.0237 0.0 0
M  V30 20 C 6.6203 -2.3109 0.0 0
M  V30 21 C 6.0621 4.0 0.0 0
M  V30 22 C 7.7942 3.9999 0.0 0
M  V30 23 N 5.6693 -2.0019 0.0 0
M  V30 24 C 6.9282 4.4999 0.0 0
M  V30 25 C 6.9282 5.5 0.0 0
M  V30 26 N 6.0621 5.9999 0.0 0
M  V30 27 C 6.0621 6.9999 0.0 0
M  V30 28 C 5.1961 7.5 0.0 0
M  V30 29 C 5.1961 8.4999 0.0 0
M  V30 30 N 4.3871 9.0877 0.0 0
M  V30 31 C 6.0051 9.0877 0.0 0
M  V30 32 C 4.6961 10.0388 0.0 0
M  V30 33 N 5.6961 10.0388 0.0 0
M  V30 END ATOM
M  V30 BEGIN BOND
M  V30 1 1 1 2
M  V30 2 2 2 3
M  V30 3 1 2 4
M  V30 4 1 3 5
M  V30 5 1 3 6
M  V30 6 2 4 7
M  V30 7 2 6 8
M  V30 8 1 7 9
M  V30 9 1 8 10
M  V30 10 2 9 11
M  V30 11 1 10 12
M  V30 12 1 11 13
M  V30 13 1 12 14
M  V30 14 1 13 15
M  V30 15 1 13 16
M  V30 16 2 14 17
M  V30 17 1 14 18
M  V30 18 1 15 19
M  V30 19 1 16 20
M  V30 20 1 17 21
M  V30 21 2 18 22
M  V30 22 1 19 23
M  V30 23 2 21 24
M  V30 24 1 24 25
M  V30 25 1 25 26
M  V30 26 1 26 27
M  V30 27 1 27 28
M  V30 28 1 28 29
M  V30 29 1 29 30
M  V30 30 2 29 31
M  V30 31 1 30 32
M  V30 32 1 31 33
M  V30 33 1 7 8
M  V30 34 1 10 11
M  V30 35 1 20 23
M  V30 36 1 22 24
M  V30 37 2 32 33
M  V30 END BOND
M  V30 END CTAB
M  END
>  <Column 1>
100

>  <Column 2>
PandemicResponseBox - Plate B

>  <Column 3>
D04

>  <Column 4>
MMV1580842

>  <Column 5>
10 mM

>  <Column 6>
ANTIBACTERIALS

>  <Column 7>


>  <Column 8>
None

>  <Column 9>


>  <Column 10>
Clc1cc2nc(C3CCNCC3)n(Cc4ccc(CNCCc5cnc[nH]5)cc4)c2cc1Cl

>  <Column 11>
CHEMBL111788

>  <Column 12>


>  <Column 13>
483.4

>  <Column 14>
C25 H28 Cl2 N6

>  <Tox-Glu>
ATCTOX

>  <Column 15>


>  <Column 16>
101 

>  <Column 17>
96 

>  <Column 18>
65 

>  <Column 19>


>  <Tox-Gal>
CTOXGAL

>  <Column 20>


>  <Column 21>
98 

>  <Column 22>
100 

>  <Column 23>
84 

>  <Column 24>


>  <Column 25>


>  <PAMPA>
PAMPA

>  <Column 26>
<3

>  <Column 27>


>  <Column 28>


>  <Mouse>
ATMETMOU

>  <Column 29>


>  <Column 30>
Not determined; Broad Peak

$$$$
Compound 102
Actelion Java MolfileCreator 2.0

  0  0  0  0  0  0              0 V3000
M  V30 BEGIN CTAB
M  V30 COUNTS 32 33 0 0 0
M  V30 BEGIN ATOM
M  V30 1 Cl 7.7942 -2.0 0.0 0
M  V30 2 C 6.9282 -1.5 0.0 0
M  V30 3 C 6.9282 -0.5 0.0 0
M  V30 4 C 6.0621 -2.0 0.0 0
M  V30 5 C 6.0621 0.0 0.0 0
M  V30 6 C 7.7942 0.0 0.0 0
M  V30 7 C 5.1961 -1.5 0.0 0
M  V30 8 C 5.1961 -0.5 0.0 0
M  V30 9 F 7.2942 0.866 0.0 0
M  V30 10 F 8.6602 0.4999 0.0 0
M  V30 11 F 8.2942 -0.866 0.0 0
M  V30 12 N 4.3301 0.0 0.0 0
M  V30 13 C 3.4641 -0.5 0.0 0
M  V30 14 O 3.4641 -1.5 0.0 0
M  V30 15 C 2.598 0.0 0.0 0
M  V30 16 C 2.598 0.9999 0.0 0
M  V30 17 C 1.732 -0.5 0.0 0
M  V30 18 O 1.732 1.5 0.0 0
M  V30 19 N 3.4641 1.4999 0.0 0
M  V30 20 C 0.866 0.0 0.0 0
M  V30 21 C 3.4641 2.4999 0.0 0
M  V30 22 Cl 0.0 -0.5 0.0 0
M  V30 23 C 4.3301 2.9999 0.0 0
M  V30 24 C 2.598 3.0 0.0 0
M  V30 25 C 4.3301 3.9999 0.0 0
M  V30 26 C 2.598 4.0 0.0 0
M  V30 27 C 3.4641 4.5 0.0 0
M  V30 28 C 5.1961 4.4999 0.0 0
M  V30 29 Cl 3.4641 5.5 0.0 0
M  V30 30 F 4.6961 5.366 0.0 0
M  V30 31 F 6.0621 4.9999 0.0 0
M  V30 32 F 5.6961 3.6339 0.0 0
M  V30 END ATOM
M  V30 BEGIN BOND
M  V30 1 1 1 2
M  V30 2 2 2 3
M  V30 3 1 2 4
M  V30 4 1 3 5
M  V30 5 1 3 6
M  V30 6 2 4 7
M  V30 7 2 5 8
M  V30 8 1 6 9
M  V30 9 1 6 10
M  V30 10 1 6 11
M  V30 11 1 8 12
M  V30 12 1 12 13
M  V30 13 2 13 14
M  V30 14 1 13 15
M  V30 15 1 15 16
M  V30 16 1 15 17
M  V30 17 2 16 18
M  V30 18 1 16 19
M  V30 19 1 17 20
M  V30 20 1 19 21
M  V30 21 1 20 22
M  V30 22 2 21 23
M  V30 23 1 21 24
M  V30 24 1 23 25
M  V30 25 2 24 26
M  V30 26 2 25 27
M  V30 27 1 25 28
M  V30 28 1 27 29
M  V30 29 1 28 30
M  V30 30 1 28 31
M  V30 31 1 28 32
M  V30 32 1 7 8
M  V30 33 1 26 27
M  V30 END BOND
M  V30 END CTAB
M  END
>  <Column 1>
101

>  <Column 2>
PandemicResponseBox - Plate B

>  <Column 3>
E04

>  <Column 4>
MMV1580840

>  <Column 5>
10 mM

>  <Column 6>
ANTIBACTERIALS

>  <Column 7>


>  <Column 8>
None

>  <Column 9>


>  <Column 10>
FC(F)(F)c1cc(NC(=O)C(CCCl)C(=O)Nc2ccc(Cl)c(c2)C(F)(F)F)ccc1Cl

>  <Column 11>
NA

>  <Column 12>
Molecules�(2018),�23(1),�27/1-27/14,Journal of Antimicrobial Chemotherapy (2016), 71(2), 449-459.

>  <Column 13>
521.7

>  <Column 14>
C19 H13 Cl3 F6 N2 O2

>  <Tox-Glu>
ATCTOX

>  <Column 15>


>  <Column 16>
39 

>  <Column 17>
0 

>  <Column 18>
1 

>  <Column 19>


>  <Tox-Gal>
CTOXGAL

>  <Column 20>


>  <Column 21>
0 

>  <Column 22>
0 

>  <Column 23>
1 

>  <Column 24>


>  <Column 25>


>  <PAMPA>
PAMPA

>  <Column 26>
7

>  <Column 27>


>  <Column 28>


>  <Mouse>
ATMETMOU

>  <Column 29>
26

>  <Column 30>


$$$$
Compound 103
Actelion Java MolfileCreator 2.0

  0  0  0  0  0  0              0 V3000
M  V30 BEGIN CTAB
M  V30 COUNTS 13 14 0 0 0
M  V30 BEGIN ATOM
M  V30 1 Cl 3.4641 1.4999 0.0 0
M  V30 2 C 2.598 0.9999 0.0 0
M  V30 3 C 1.732 1.4999 0.0 0
M  V30 4 C 2.598 0.0 0.0 0
M  V30 5 C 0.866 0.9999 0.0 0
M  V30 6 C 1.732 -0.5 0.0 0
M  V30 7 C 0.866 0.0 0.0 0
M  V30 8 C 0.0 -0.5 0.0 0
M  V30 9 S -0.9135 -0.0932 0.0 0
M  V30 10 N -0.1045 -1.4945 0.0 0
M  V30 11 C -1.5826 -0.8364 0.0 0
M  V30 12 N -1.0826 -1.7024 0.0 0
M  V30 13 N -2.5771 -0.7318 0.0 0
M  V30 END ATOM
M  V30 BEGIN BOND
M  V30 1 1 1 2
M  V30 2 2 2 3
M  V30 3 1 2 4
M  V30 4 1 3 5
M  V30 5 2 4 6
M  V30 6 2 5 7
M  V30 7 1 7 8
M  V30 8 1 8 9
M  V30 9 2 8 10
M  V30 10 1 9 11
M  V30 11 1 10 12
M  V30 12 1 11 13
M  V30 13 1 6 7
M  V30 14 2 11 12
M  V30 END BOND
M  V30 END CTAB
M  END
>  <Column 1>
102

>  <Column 2>
PandemicResponseBox - Plate B

>  <Column 3>
F04

>  <Column 4>
MMV046261

>  <Column 5>
10 mM

>  <Column 6>
ANTIBACTERIALS

>  <Column 7>


>  <Column 8>
None

>  <Column 9>


>  <Column 10>
Nc1nnc(s1)c2ccc(Cl)cc2

>  <Column 11>
CHEMBL1383520

>  <Column 12>


>  <Column 13>
211.7

>  <Column 14>
C8H6ClN3S

>  <Tox-Glu>
ATCTOX

>  <Column 15>


>  <Column 16>
97 

>  <Column 17>
96 

>  <Column 18>
89 

>  <Column 19>


>  <Tox-Gal>
CTOXGAL

>  <Column 20>


>  <Column 21>
98 

>  <Column 22>
100 

>  <Column 23>
99 

>  <Column 24>


>  <Column 25>


>  <PAMPA>
PAMPA

>  <Column 26>
144

>  <Column 27>


>  <Column 28>


>  <Mouse>
ATMETMOU

>  <Column 29>
102

>  <Column 30>


$$$$
Compound 104
Actelion Java MolfileCreator 2.0

  0  0  0  0  0  0              0 V3000
M  V30 BEGIN CTAB
M  V30 COUNTS 21 22 0 0 0
M  V30 BEGIN ATOM
M  V30 1 O 0.866 0.0 0.0 0
M  V30 2 C 1.732 -0.5 0.0 0
M  V30 3 C 0.0 -0.5 0.0 0
M  V30 4 C 1.732 -1.5 0.0 0
M  V30 5 C 2.598 0.0 0.0 0
M  V30 6 O 0.866 -1.9999 0.0 0
M  V30 7 C 2.598 -2.0 0.0 0
M  V30 8 O 2.598 0.9999 0.0 0
M  V30 9 C 3.4641 -0.5 0.0 0
M  V30 10 C 0.866 -2.9999 0.0 0
M  V30 11 C 3.4641 -1.5 0.0 0
M  V30 12 C 1.732 1.5 0.0 0
M  V30 13 C 4.3301 -2.0 0.0 0
M  V30 14 C 5.1961 -1.5 0.0 0
M  V30 15 N 6.0621 -2.0 0.0 0
M  V30 16 C 5.1961 -0.5 0.0 0
M  V30 17 C 6.9282 -1.5 0.0 0
M  V30 18 C 6.0621 0.0 0.0 0
M  V30 19 N 6.9282 -0.5 0.0 0
M  V30 20 N 7.7942 -2.0 0.0 0
M  V30 21 N 6.0621 0.9999 0.0 0
M  V30 END ATOM
M  V30 BEGIN BOND
M  V30 1 1 1 2
M  V30 2 1 1 3
M  V30 3 2 2 4
M  V30 4 1 2 5
M  V30 5 1 4 6
M  V30 6 1 4 7
M  V30 7 1 5 8
M  V30 8 2 5 9
M  V30 9 1 6 10
M  V30 10 2 7 11
M  V30 11 1 8 12
M  V30 12 1 11 13
M  V30 13 1 13 14
M  V30 14 2 14 15
M  V30 15 1 14 16
M  V30 16 1 15 17
M  V30 17 2 16 18
M  V30 18 2 17 19
M  V30 19 1 17 20
M  V30 20 1 18 21
M  V30 21 1 9 11
M  V30 22 1 18 19
M  V30 END BOND
M  V30 END CTAB
M  END
>  <Column 1>
103

>  <Column 2>
PandemicResponseBox - Plate B

>  <Column 3>
G04

>  <Column 4>
MMV1579846

>  <Column 5>
10 mM

>  <Column 6>
ANTIBACTERIALS

>  <Column 7>


>  <Column 8>
None

>  <Column 9>


>  <Column 10>
COc1cc(Cc2cc(N)nc(N)n2)cc(OC)c1OC

>  <Column 11>
CHEMBL351660

>  <Column 12>


>  <Column 13>
290.3

>  <Column 14>
C14 H18 N4 O3

>  <Tox-Glu>
ATCTOX

>  <Column 15>


>  <Column 16>
103 

>  <Column 17>
98 

>  <Column 18>
90 

>  <Column 19>


>  <Tox-Gal>
CTOXGAL

>  <Column 20>


>  <Column 21>
101 

>  <Column 22>
100 

>  <Column 23>
100 

>  <Column 24>


>  <Column 25>


>  <PAMPA>
PAMPA

>  <Column 26>
222

>  <Column 27>


>  <Column 28>


>  <Mouse>
ATMETMOU

>  <Column 29>
-20

>  <Column 30>


$$$$
Compound 105
Actelion Java MolfileCreator 2.0

  0  0  0  0  0  0              0 V3000
M  V30 BEGIN CTAB
M  V30 COUNTS 28 30 0 0 0
M  V30 BEGIN ATOM
M  V30 1 O 6.4951 1.4999 0.0 0
M  V30 2 C 6.4951 0.0 0.0 0
M  V30 3 O 5.1961 -0.75 0.0 0
M  V30 4 N 7.7942 -0.75 0.0 0
M  V30 5 C 3.8971 0.0 0.0 0
M  V30 6 C 9.0932 0.0 0.0 0
M  V30 7 C 2.598 -0.75 0.0 0
M  V30 8 C 10.3923 -0.75 0.0 0
M  V30 9 C 9.0932 1.4999 0.0 0
M  V30 10 C 1.299 0.0 0.0 0
M  V30 11 N 10.3923 -2.25 0.0 0
M  V30 12 C 11.6913 0.0 0.0 0
M  V30 13 C 10.3923 2.2499 0.0 0
M  V30 14 C 0.0 -0.75 0.0 0
M  V30 15 C 9.0932 -3.0 0.0 0
M  V30 16 C 11.6913 -3.0 0.0 0
M  V30 17 C 11.6913 1.4999 0.0 0
M  V30 18 N 10.7041 3.7172 0.0 0
M  V30 19 C 7.7942 -2.25 0.0 0
M  V30 20 C 12.9903 -2.2499 0.0 0
M  V30 21 N 12.806 2.5036 0.0 0
M  V30 22 C 12.1959 3.874 0.0 0
M  V30 23 C 12.9459 5.173 0.0 0
M  V30 24 C 14.4459 5.173 0.0 0
M  V30 25 C 12.1959 6.472 0.0 0
M  V30 26 C 15.1959 6.472 0.0 0
M  V30 27 C 12.9459 7.7711 0.0 0
M  V30 28 C 14.4459 7.7711 0.0 0
M  V30 END ATOM
M  V30 BEGIN BOND
M  V30 1 2 1 2
M  V30 2 1 2 3
M  V30 3 1 2 4
M  V30 4 1 3 5
M  V30 5 1 4 6
M  V30 6 1 5 7
M  V30 7 2 6 8
M  V30 8 1 6 9
M  V30 9 1 7 10
M  V30 10 1 8 11
M  V30 11 1 8 12
M  V30 12 2 9 13
M  V30 13 1 10 14
M  V30 14 1 11 15
M  V30 15 1 11 16
M  V30 16 2 12 17
M  V30 17 1 13 18
M  V30 18 1 15 19
M  V30 19 1 16 20
M  V30 20 1 17 21
M  V30 21 2 18 22
M  V30 22 1 22 23
M  V30 23 1 23 24
M  V30 24 1 23 25
M  V30 25 1 24 26
M  V30 26 1 25 27
M  V30 27 1 26 28
M  V30 28 1 13 17
M  V30 29 1 21 22
M  V30 30 1 27 28
M  V30 END BOND
M  V30 END CTAB
M  END
>  <Column 1>
104

>  <Column 2>
PandemicResponseBox - Plate B

>  <Column 3>
H04

>  <Column 4>
MMV1578842

>  <Column 5>
10 mM

>  <Column 6>
ANTIBACTERIALS

>  <Column 7>


>  <Column 8>
None

>  <Column 9>


>  <Column 10>
CCCCOC(=O)Nc1cc2c(cc1N(CC)CC)[nH]c(n2)C3CCCCC3

>  <Column 11>
CHEMBL1651202

>  <Column 12>


>  <Column 13>
386.5

>  <Column 14>
C22 H34 N4 O2

>  <Tox-Glu>
ATCTOX

>  <Column 15>


>  <Column 16>
57 

>  <Column 17>
60 

>  <Column 18>
59 

>  <Column 19>


>  <Tox-Gal>
CTOXGAL

>  <Column 20>


>  <Column 21>
0 

>  <Column 22>
0 

>  <Column 23>
0 

>  <Column 24>


>  <Column 25>


>  <PAMPA>
PAMPA

>  <Column 26>
522

>  <Column 27>


>  <Column 28>


>  <Mouse>
ATMETMOU

>  <Column 29>
751

>  <Column 30>


$$$$
Compound 106
Actelion Java MolfileCreator 2.0

  0  0  0  0  0  0              0 V3000
M  V30 BEGIN CTAB
M  V30 COUNTS 27 29 0 0 0
M  V30 BEGIN ATOM
M  V30 1 S 6.9282 1.4999 0.0 0
M  V30 2 O 7.4282 0.6339 0.0 0
M  V30 3 O 6.4282 2.366 0.0 0
M  V30 4 N 7.7942 1.9999 0.0 0
M  V30 5 C 6.0621 0.9999 0.0 0
M  V30 6 C 5.1961 1.4999 0.0 0
M  V30 7 C 6.0621 0.0 0.0 0
M  V30 8 C 4.3301 0.9999 0.0 0
M  V30 9 C 5.1961 -0.5 0.0 0
M  V30 10 C 4.3301 0.0 0.0 0
M  V30 11 N 3.4641 -0.5 0.0 0
M  V30 12 C 2.598 0.0 0.0 0
M  V30 13 O 2.598 1.0 0.0 0
M  V30 14 N 1.732 -0.5 0.0 0
M  V30 15 C 0.866 0.0 0.0 0
M  V30 16 C 0.866 1.0 0.0 0
M  V30 17 C 0.0 -0.5 0.0 0
M  V30 18 C 1.732 1.4999 0.0 0
M  V30 19 C 0.0 1.4999 0.0 0
M  V30 20 C -0.866 0.0 0.0 0
M  V30 21 C 0.0 -1.4999 0.0 0
M  V30 22 C 1.732 2.5 0.0 0
M  V30 23 C 0.0 2.5 0.0 0
M  V30 24 C -1.732 -0.4999 0.0 0
M  V30 25 C -0.866 -1.9999 0.0 0
M  V30 26 C 0.866 3.0 0.0 0
M  V30 27 C -1.732 -1.4999 0.0 0
M  V30 END ATOM
M  V30 BEGIN BOND
M  V30 1 2 1 2
M  V30 2 2 1 3
M  V30 3 1 1 4
M  V30 4 1 1 5
M  V30 5 2 5 6
M  V30 6 1 5 7
M  V30 7 1 6 8
M  V30 8 2 7 9
M  V30 9 2 8 10
M  V30 10 1 10 11
M  V30 11 1 11 12
M  V30 12 2 12 13
M  V30 13 1 12 14
M  V30 14 1 14 15
M  V30 15 1 15 16
M  V30 16 1 15 17
M  V30 17 2 16 18
M  V30 18 1 16 19
M  V30 19 2 17 20
M  V30 20 1 17 21
M  V30 21 1 18 22
M  V30 22 2 19 23
M  V30 23 1 20 24
M  V30 24 2 21 25
M  V30 25 2 22 26
M  V30 26 2 24 27
M  V30 27 1 9 10
M  V30 28 1 23 26
M  V30 29 1 25 27
M  V30 END BOND
M  V30 END CTAB
M  END
>  <Column 1>
105

>  <Column 2>
PandemicResponseBox - Plate B

>  <Column 3>
A05

>  <Column 4>
MMV1579776

>  <Column 5>
10 mM

>  <Column 6>
ANTIBACTERIALS

>  <Column 7>


>  <Column 8>
None

>  <Column 9>


>  <Column 10>
NS(=O)(=O)c1ccc(NC(=O)NC(c2ccccc2)c3ccccc3)cc1

>  <Column 11>
CHEMBL1643290

>  <Column 12>


>  <Column 13>
381.4

>  <Column 14>
C20 H19 N3 O3 S

>  <Tox-Glu>
ATCTOX

>  <Column 15>


>  <Column 16>
102 

>  <Column 17>
90 

>  <Column 18>
4 

>  <Column 19>


>  <Tox-Gal>
CTOXGAL

>  <Column 20>


>  <Column 21>
97 

>  <Column 22>
92 

>  <Column 23>
0 

>  <Column 24>


>  <Column 25>


>  <PAMPA>
PAMPA

>  <Column 26>
9

>  <Column 27>


>  <Column 28>


>  <Mouse>
ATMETMOU

>  <Column 29>
14

>  <Column 30>


$$$$
Compound 107
Actelion Java MolfileCreator 2.0

  0  0  0  0  0  0              0 V3000
M  V30 BEGIN CTAB
M  V30 COUNTS 22 24 0 0 0
M  V30 BEGIN ATOM
M  V30 1 O 5.1961 -0.5 0.0 0
M  V30 2 C 4.3301 0.0 0.0 0
M  V30 3 N 4.3301 1.0 0.0 0
M  V30 4 C 3.4641 -0.4999 0.0 0
M  V30 5 C 3.4641 1.5 0.0 0
M  V30 6 C 5.1961 1.5 0.0 0
M  V30 7 C 2.598 0.0 0.0 0
M  V30 8 C 2.598 1.0 0.0 0
M  V30 9 C 5.1961 2.5 0.0 0
M  V30 10 O 1.732 -0.5 0.0 0
M  V30 11 C 6.0621 2.9999 0.0 0
M  V30 12 C 4.3301 3.0 0.0 0
M  V30 13 C 0.866 0.0 0.0 0
M  V30 14 C 6.0621 3.9999 0.0 0
M  V30 15 C 4.3301 4.0 0.0 0
M  V30 16 C 0.0 -0.5 0.0 0
M  V30 17 C 5.1961 4.4999 0.0 0
M  V30 18 C -0.866 0.0 0.0 0
M  V30 19 C 0.0 -1.4999 0.0 0
M  V30 20 C -1.732 -0.4999 0.0 0
M  V30 21 C -0.866 -1.9999 0.0 0
M  V30 22 C -1.732 -1.4999 0.0 0
M  V30 END ATOM
M  V30 BEGIN BOND
M  V30 1 2 1 2
M  V30 2 1 2 3
M  V30 3 1 2 4
M  V30 4 1 3 5
M  V30 5 1 3 6
M  V30 6 2 4 7
M  V30 7 2 5 8
M  V30 8 1 6 9
M  V30 9 1 7 10
M  V30 10 2 9 11
M  V30 11 1 9 12
M  V30 12 1 10 13
M  V30 13 1 11 14
M  V30 14 2 12 15
M  V30 15 1 13 16
M  V30 16 2 14 17
M  V30 17 2 16 18
M  V30 18 1 16 19
M  V30 19 1 18 20
M  V30 20 2 19 21
M  V30 21 2 20 22
M  V30 22 1 7 8
M  V30 23 1 15 17
M  V30 24 1 21 22
M  V30 END BOND
M  V30 END CTAB
M  END
>  <Column 1>
106

>  <Column 2>
PandemicResponseBox - Plate B

>  <Column 3>
B05

>  <Column 4>
MMV1579775

>  <Column 5>
10 mM

>  <Column 6>
ANTIBACTERIALS

>  <Column 7>


>  <Column 8>
None

>  <Column 9>
1-Benzyl-4-benzyloxy-2-pyridone

>  <Column 10>
O=C1C=C(OCc2ccccc2)C=CN1Cc3ccccc3

>  <Column 11>
CHEMBL265448

>  <Column 12>


>  <Column 13>
291.3

>  <Column 14>
C19 H17 N O2

>  <Tox-Glu>
ATCTOX

>  <Column 15>


>  <Column 16>
104 

>  <Column 17>
102 

>  <Column 18>
80 

>  <Column 19>


>  <Tox-Gal>
CTOXGAL

>  <Column 20>


>  <Column 21>
102 

>  <Column 22>
103 

>  <Column 23>
7 

>  <Column 24>


>  <Column 25>


>  <PAMPA>
PAMPA

>  <Column 26>
472

>  <Column 27>


>  <Column 28>


>  <Mouse>
ATMETMOU

>  <Column 29>
49

>  <Column 30>


$$$$
Compound 108
Actelion Java MolfileCreator 2.0

  0  0  0  0  0  0              0 V3000
M  V30 BEGIN CTAB
M  V30 COUNTS 21 23 0 0 0
M  V30 BEGIN ATOM
M  V30 1 O 2.8535 0.8848 0.0 0
M  V30 2 C 2.6455 -0.0932 0.0 0
M  V30 3 N 1.732 -0.5 0.0 0
M  V30 4 N 3.3147 -0.8364 0.0 0
M  V30 5 C 1.8365 -1.4945 0.0 0
M  V30 6 C 0.866 0.0 0.0 0
M  V30 7 C 2.8147 -1.7024 0.0 0
M  V30 8 C 4.3092 -0.7318 0.0 0
M  V30 9 C 1.1674 -2.2376 0.0 0
M  V30 10 C 0.866 1.0 0.0 0
M  V30 11 C 0.0 -0.5 0.0 0
M  V30 12 C 3.1237 -2.6534 0.0 0
M  V30 13 C 4.7159 0.1816 0.0 0
M  V30 14 C 1.4764 -3.1887 0.0 0
M  V30 15 C 2.4546 -3.3966 0.0 0
M  V30 16 C 5.7105 0.2861 0.0 0
M  V30 17 C 4.1282 0.9906 0.0 0
M  V30 18 C 6.1172 1.1997 0.0 0
M  V30 19 C 6.2982 -0.5228 0.0 0
M  V30 20 C 4.5349 1.9042 0.0 0
M  V30 21 C 5.5294 2.0087 0.0 0
M  V30 END ATOM
M  V30 BEGIN BOND
M  V30 1 2 1 2
M  V30 2 1 2 3
M  V30 3 1 2 4
M  V30 4 1 3 5
M  V30 5 1 3 6
M  V30 6 1 4 7
M  V30 7 1 4 8
M  V30 8 1 5 9
M  V30 9 2 6 10
M  V30 10 1 6 11
M  V30 11 1 7 12
M  V30 12 1 8 13
M  V30 13 2 9 14
M  V30 14 2 12 15
M  V30 15 2 13 16
M  V30 16 1 13 17
M  V30 17 1 16 18
M  V30 18 1 16 19
M  V30 19 2 17 20
M  V30 20 2 18 21
M  V30 21 2 5 7
M  V30 22 1 14 15
M  V30 23 1 20 21
M  V30 END BOND
M  V30 END CTAB
M  END
>  <Column 1>
107

>  <Column 2>
PandemicResponseBox - Plate B

>  <Column 3>
C05

>  <Column 4>
MMV1579354

>  <Column 5>
10 mM

>  <Column 6>
ANTIBACTERIALS

>  <Column 7>


>  <Column 8>
None

>  <Column 9>


>  <Column 10>
CC(=C)N1C(=O)N(Cc2ccccc2C)c3ccccc13

>  <Column 11>
CHEMBL1338285

>  <Column 12>


>  <Column 13>
278.3

>  <Column 14>
C18 H18 N2 O

>  <Tox-Glu>
ATCTOX

>  <Column 15>


>  <Column 16>
111 

>  <Column 17>
106 

>  <Column 18>
82 

>  <Column 19>


>  <Tox-Gal>
CTOXGAL

>  <Column 20>


>  <Column 21>
101 

>  <Column 22>
103 

>  <Column 23>
13 

>  <Column 24>


>  <Column 25>


>  <PAMPA>
PAMPA

>  <Column 26>
409

>  <Column 27>


>  <Column 28>


>  <Mouse>
ATMETMOU

>  <Column 29>
555

>  <Column 30>


$$$$
Compound 109
Actelion Java MolfileCreator 2.0

  0  0  0  0  0  0              0 V3000
M  V30 BEGIN CTAB
M  V30 COUNTS 14 14 0 0 0
M  V30 BEGIN ATOM
M  V30 1 O 3.4641 -1.5 0.0 0
M  V30 2 C 3.4641 -0.5 0.0 0
M  V30 3 O 2.598 0.0 0.0 0
M  V30 4 C 4.3301 0.0 0.0 0
M  V30 5 C 1.732 -0.5 0.0 0
M  V30 6 C 5.1961 -0.5 0.0 0
M  V30 7 C 0.866 0.0 0.0 0
M  V30 8 C 6.0621 0.0 0.0 0
M  V30 9 C 0.0 -0.5 0.0 0
M  V30 10 C -0.866 0.0 0.0 0
M  V30 11 C 0.0 -1.4999 0.0 0
M  V30 12 C -1.732 -0.4999 0.0 0
M  V30 13 C -0.866 -1.9999 0.0 0
M  V30 14 C -1.732 -1.4999 0.0 0
M  V30 END ATOM
M  V30 BEGIN BOND
M  V30 1 2 1 2
M  V30 2 1 2 3
M  V30 3 1 2 4
M  V30 4 1 3 5
M  V30 5 1 4 6
M  V30 6 1 5 7
M  V30 7 1 6 8
M  V30 8 1 7 9
M  V30 9 2 9 10
M  V30 10 1 9 11
M  V30 11 1 10 12
M  V30 12 2 11 13
M  V30 13 2 12 14
M  V30 14 1 13 14
M  V30 END BOND
M  V30 END CTAB
M  END
>  <Column 1>
108

>  <Column 2>
PandemicResponseBox - Plate B

>  <Column 3>
D05

>  <Column 4>
MMV1578899

>  <Column 5>
10 mM

>  <Column 6>
ANTIBACTERIALS

>  <Column 7>


>  <Column 8>
None

>  <Column 9>
Phenethyl butyrate

>  <Column 10>
CCCC(=O)OCCc1ccccc1

>  <Column 11>
CHEMBL3187974

>  <Column 12>


>  <Column 13>
192.3

>  <Column 14>
C12 H16 O2

>  <Tox-Glu>
ATCTOX

>  <Column 15>


>  <Column 16>
104 

>  <Column 17>
103 

>  <Column 18>
103 

>  <Column 19>


>  <Tox-Gal>
CTOXGAL

>  <Column 20>


>  <Column 21>
100 

>  <Column 22>
100 

>  <Column 23>
102 

>  <Column 24>


>  <Column 25>


>  <PAMPA>
PAMPA

>  <Column 26>
undetected

>  <Column 27>
low sensitivity

>  <Column 28>


>  <Mouse>
ATMETMOU

>  <Column 29>


>  <Column 30>
Not determined; Low sensitivity

$$$$
Compound 110
Actelion Java MolfileCreator 2.0

  0  0  0  0  0  0              0 V3000
M  V30 BEGIN CTAB
M  V30 COUNTS 20 22 0 0 0
M  V30 BEGIN ATOM
M  V30 1 S 2.598 -0.75 0.0 0
M  V30 2 O 1.848 -2.049 0.0 0
M  V30 3 O 3.348 -2.049 0.0 0
M  V30 4 N 1.299 0.0 0.0 0
M  V30 5 C 3.8971 0.0 0.0 0
M  V30 6 C 0.0 -0.75 0.0 0
M  V30 7 C 5.1961 -0.75 0.0 0
M  V30 8 C 3.8971 1.5 0.0 0
M  V30 9 C -1.299 0.0 0.0 0
M  V30 10 C 0.0 -2.25 0.0 0
M  V30 11 C 6.4952 0.0 0.0 0
M  V30 12 C 5.1961 2.25 0.0 0
M  V30 13 N -1.299 1.5 0.0 0
M  V30 14 C -2.598 -0.75 0.0 0
M  V30 15 C -1.299 -3.0 0.0 0
M  V30 16 C 6.4952 1.5 0.0 0
M  V30 17 C -2.598 2.25 0.0 0
M  V30 18 C -3.8971 0.0 0.0 0
M  V30 19 C -2.598 -2.25 0.0 0
M  V30 20 C -3.8971 1.5 0.0 0
M  V30 END ATOM
M  V30 BEGIN BOND
M  V30 1 2 1 2
M  V30 2 2 1 3
M  V30 3 1 1 4
M  V30 4 1 1 5
M  V30 5 1 4 6
M  V30 6 2 5 7
M  V30 7 1 5 8
M  V30 8 1 6 9
M  V30 9 2 6 10
M  V30 10 1 7 11
M  V30 11 2 8 12
M  V30 12 2 9 13
M  V30 13 1 9 14
M  V30 14 1 10 15
M  V30 15 2 11 16
M  V30 16 1 13 17
M  V30 17 2 14 18
M  V30 18 1 14 19
M  V30 19 2 17 20
M  V30 20 1 12 16
M  V30 21 2 15 19
M  V30 22 1 18 20
M  V30 END BOND
M  V30 END CTAB
M  END
>  <Column 1>
109

>  <Column 2>
PandemicResponseBox - Plate B

>  <Column 3>
E05

>  <Column 4>
MMV1578890

>  <Column 5>
10 mM

>  <Column 6>
ANTIBACTERIALS

>  <Column 7>


>  <Column 8>
None

>  <Column 9>


>  <Column 10>
O=S(=O)(Nc1cccc2cccnc12)c3ccccc3

>  <Column 11>
CHEMBL257286

>  <Column 12>


>  <Column 13>
284.3

>  <Column 14>
C15 H12 N2 O2 S

>  <Tox-Glu>
ATCTOX

>  <Column 15>


>  <Column 16>
55 

>  <Column 17>
53 

>  <Column 18>
63 

>  <Column 19>


>  <Tox-Gal>
CTOXGAL

>  <Column 20>


>  <Column 21>
86 

>  <Column 22>
83 

>  <Column 23>
81 

>  <Column 24>


>  <Column 25>


>  <PAMPA>
PAMPA

>  <Column 26>
299

>  <Column 27>


>  <Column 28>


>  <Mouse>
ATMETMOU

>  <Column 29>
>768

>  <Column 30>


$$$$
Compound 111
Actelion Java MolfileCreator 2.0

  0  0  0  0  0  0              0 V3000
M  V30 BEGIN CTAB
M  V30 COUNTS 22 25 0 0 0
M  V30 BEGIN ATOM
M  V30 1 N 1.952 -4.7127 0.0 0
M  V30 2 C 1.6401 -3.2454 0.0 0
M  V30 3 C 0.8373 -5.7163 0.0 0
M  V30 4 C 2.7548 -2.2417 0.0 0
M  V30 5 C 0.2135 -2.7819 0.0 0
M  V30 6 C -0.5892 -5.2528 0.0 0
M  V30 7 N 4.222 -2.5536 0.0 0
M  V30 8 N 2.598 -0.75 0.0 0
M  V30 9 C -0.9011 -3.7856 0.0 0
M  V30 10 C 4.972 -1.2546 0.0 0
M  V30 11 C 3.9683 -0.1398 0.0 0
M  V30 12 C 1.299 0.0 0.0 0
M  V30 13 C 6.4393 -0.9427 0.0 0
M  V30 14 C 4.4319 1.2866 0.0 0
M  V30 15 C 1.299 1.4999 0.0 0
M  V30 16 C 6.9028 0.4838 0.0 0
M  V30 17 C 5.8991 1.5985 0.0 0
M  V30 18 C 0.0 2.2499 0.0 0
M  V30 19 C 2.598 2.25 0.0 0
M  V30 20 C 0.0 3.7499 0.0 0
M  V30 21 C 2.598 3.75 0.0 0
M  V30 22 C 1.299 4.5 0.0 0
M  V30 END ATOM
M  V30 BEGIN BOND
M  V30 1 2 1 2
M  V30 2 1 1 3
M  V30 3 1 2 4
M  V30 4 1 2 5
M  V30 5 2 3 6
M  V30 6 2 4 7
M  V30 7 1 4 8
M  V30 8 2 5 9
M  V30 9 1 7 10
M  V30 10 1 8 11
M  V30 11 1 8 12
M  V30 12 1 10 13
M  V30 13 1 11 14
M  V30 14 1 12 15
M  V30 15 2 13 16
M  V30 16 2 14 17
M  V30 17 2 15 18
M  V30 18 1 15 19
M  V30 19 1 18 20
M  V30 20 2 19 21
M  V30 21 2 20 22
M  V30 22 1 6 9
M  V30 23 2 10 11
M  V30 24 1 16 17
M  V30 25 1 21 22
M  V30 END BOND
M  V30 END CTAB
M  END
>  <Column 1>
110

>  <Column 2>
PandemicResponseBox - Plate B

>  <Column 3>
F05

>  <Column 4>
MMV1578886

>  <Column 5>
10 mM

>  <Column 6>
ANTIBACTERIALS

>  <Column 7>


>  <Column 8>
None

>  <Column 9>


>  <Column 10>
C(c1ccccc1)n2c(nc3ccccc23)c4ccccn4

>  <Column 11>
CHEMBL373247

>  <Column 12>


>  <Column 13>
285.3

>  <Column 14>
C19 H15 N3

>  <Tox-Glu>
ATCTOX

>  <Column 15>


>  <Column 16>
103 

>  <Column 17>
95 

>  <Column 18>
31 

>  <Column 19>


>  <Tox-Gal>
CTOXGAL

>  <Column 20>


>  <Column 21>
96 

>  <Column 22>
91 

>  <Column 23>
0 

>  <Column 24>


>  <Column 25>


>  <PAMPA>
PAMPA

>  <Column 26>
349

>  <Column 27>


>  <Column 28>


>  <Mouse>
ATMETMOU

>  <Column 29>
346

>  <Column 30>


$$$$
Compound 112
Actelion Java MolfileCreator 2.0

  0  0  0  0  0  0              0 V3000
M  V30 BEGIN CTAB
M  V30 COUNTS 26 29 0 0 0
M  V30 BEGIN ATOM
M  V30 1 S 7.7942 -2.2499 0.0 0
M  V30 2 C 7.7942 -0.75 0.0 0
M  V30 3 C 6.4951 -2.9999 0.0 0
M  V30 4 C 6.4951 0.0 0.0 0
M  V30 5 C 9.0932 0.0 0.0 0
M  V30 6 C 5.1961 -2.25 0.0 0
M  V30 7 C 6.4951 -4.5 0.0 0
M  V30 8 N 5.1961 -0.75 0.0 0
M  V30 9 C 6.4951 1.5 0.0 0
M  V30 10 C 9.0932 1.5 0.0 0
M  V30 11 C 3.8971 -3.0 0.0 0
M  V30 12 C 5.1961 -5.25 0.0 0
M  V30 13 C 3.8971 0.0 0.0 0
M  V30 14 C 7.7942 2.25 0.0 0
M  V30 15 C 3.8971 -4.5 0.0 0
M  V30 16 O 3.8971 1.5 0.0 0
M  V30 17 C 2.598 -0.75 0.0 0
M  V30 18 S 1.299 0.0 0.0 0
M  V30 19 C 0.0 -0.75 0.0 0
M  V30 20 C -1.299 0.0 0.0 0
M  V30 21 C 0.0 -2.2499 0.0 0
M  V30 22 C -2.598 -0.7499 0.0 0
M  V30 23 C -1.299 -2.9999 0.0 0
M  V30 24 C -2.598 -2.2499 0.0 0
M  V30 25 O -3.8971 -2.9999 0.0 0
M  V30 26 C -3.8971 -4.4999 0.0 0
M  V30 END ATOM
M  V30 BEGIN BOND
M  V30 1 1 1 2
M  V30 2 1 1 3
M  V30 3 2 2 4
M  V30 4 1 2 5
M  V30 5 2 3 6
M  V30 6 1 3 7
M  V30 7 1 4 8
M  V30 8 1 4 9
M  V30 9 2 5 10
M  V30 10 1 6 11
M  V30 11 2 7 12
M  V30 12 1 8 13
M  V30 13 2 9 14
M  V30 14 2 11 15
M  V30 15 2 13 16
M  V30 16 1 13 17
M  V30 17 1 17 18
M  V30 18 1 18 19
M  V30 19 2 19 20
M  V30 20 1 19 21
M  V30 21 1 20 22
M  V30 22 2 21 23
M  V30 23 2 22 24
M  V30 24 1 24 25
M  V30 25 1 25 26
M  V30 26 1 6 8
M  V30 27 1 10 14
M  V30 28 1 12 15
M  V30 29 1 23 24
M  V30 END BOND
M  V30 END CTAB
M  END
>  <Column 1>
111

>  <Column 2>
PandemicResponseBox - Plate B

>  <Column 3>
G05

>  <Column 4>
MMV1578573

>  <Column 5>
10 mM

>  <Column 6>
ANTIBACTERIALS

>  <Column 7>


>  <Column 8>
None

>  <Column 9>
BRD-K92790413

>  <Column 10>
COc1ccc(SCC(=O)N2c3ccccc3Sc4ccccc24)cc1

>  <Column 11>
CHEMBL1475828

>  <Column 12>


>  <Column 13>
379.5

>  <Column 14>
C21 H17 N O2 S2

>  <Tox-Glu>
ATCTOX

>  <Column 15>


>  <Column 16>
92 

>  <Column 17>
68 

>  <Column 18>
71 

>  <Column 19>


>  <Tox-Gal>
CTOXGAL

>  <Column 20>


>  <Column 21>
83 

>  <Column 22>
1 

>  <Column 23>
1 

>  <Column 24>


>  <Column 25>


>  <PAMPA>
PAMPA

>  <Column 26>
378

>  <Column 27>


>  <Column 28>


>  <Mouse>
ATMETMOU

>  <Column 29>
>768

>  <Column 30>


$$$$
Compound 113
Actelion Java MolfileCreator 2.0

  0  0  0  0  0  0              0 V3000
M  V30 BEGIN CTAB
M  V30 COUNTS 23 24 0 0 0
M  V30 BEGIN ATOM
M  V30 1 Cl 4.3301 0.9999 0.0 0
M  V30 2 C 3.4641 1.4999 0.0 0
M  V30 3 C 2.598 0.9999 0.0 0
M  V30 4 C 3.4641 2.4999 0.0 0
M  V30 5 C 1.732 1.4999 0.0 0
M  V30 6 C 2.598 3.0 0.0 0
M  V30 7 N 0.866 0.9999 0.0 0
M  V30 8 C 1.732 2.4999 0.0 0
M  V30 9 N 0.866 0.0 0.0 0
M  V30 10 C 0.0 -0.5 0.0 0
M  V30 11 C -0.866 0.0 0.0 0
M  V30 12 C 0.0 -1.5 0.0 0
M  V30 13 N -1.732 0.5 0.0 0
M  V30 14 O -0.866 -1.9999 0.0 0
M  V30 15 C 0.866 -2.0 0.0 0
M  V30 16 N 0.9705 -2.9945 0.0 0
M  V30 17 C 1.7795 -1.5932 0.0 0
M  V30 18 O 1.9487 -3.2024 0.0 0
M  V30 19 C 2.4487 -2.3364 0.0 0
M  V30 20 C 3.4432 -2.2318 0.0 0
M  V30 21 C 3.3386 -1.2373 0.0 0
M  V30 22 C 4.4377 -2.1273 0.0 0
M  V30 23 C 3.5477 -3.2264 0.0 0
M  V30 END ATOM
M  V30 BEGIN BOND
M  V30 1 1 1 2
M  V30 2 2 2 3
M  V30 3 1 2 4
M  V30 4 1 3 5
M  V30 5 2 4 6
M  V30 6 1 5 7
M  V30 7 2 5 8
M  V30 8 1 7 9
M  V30 9 2 9 10
M  V30 10 1 10 11
M  V30 11 1 10 12
M  V30 12 3 11 13
M  V30 13 2 12 14
M  V30 14 1 12 15
M  V30 15 2 15 16
M  V30 16 1 15 17
M  V30 17 1 16 18
M  V30 18 2 17 19
M  V30 19 1 19 20
M  V30 20 1 20 21
M  V30 21 1 20 22
M  V30 22 1 20 23
M  V30 23 1 6 8
M  V30 24 1 18 19
M  V30 END BOND
M  V30 END CTAB
M  END
>  <Column 1>
112

>  <Column 2>
PandemicResponseBox - Plate B

>  <Column 3>
H05

>  <Column 4>
MMV1578571

>  <Column 5>
10 mM

>  <Column 6>
ANTIBACTERIALS

>  <Column 7>


>  <Column 8>
None

>  <Column 9>
ESI-09

>  <Column 10>
CC(C)(C)c1onc(c1)C(=O)\C(=N\Nc2cccc(Cl)c2)\C#N

>  <Column 11>
CHEMBL3260990

>  <Column 12>


>  <Column 13>
330.8

>  <Column 14>
C16 H15 Cl N4 O2

>  <Tox-Glu>
ATCTOX

>  <Column 15>


>  <Column 16>
52 

>  <Column 17>
1 

>  <Column 18>
1 

>  <Column 19>


>  <Tox-Gal>
CTOXGAL

>  <Column 20>


>  <Column 21>
1 

>  <Column 22>
0 

>  <Column 23>
1 

>  <Column 24>


>  <Column 25>


>  <PAMPA>
PAMPA

>  <Column 26>
73

>  <Column 27>


>  <Column 28>


>  <Mouse>
ATMETMOU

>  <Column 29>
43

>  <Column 30>


$$$$
Compound 114
Actelion Java MolfileCreator 2.0

  0  0  0  0  0  0              0 V3000
M  V30 BEGIN CTAB
M  V30 COUNTS 24 26 0 0 0
M  V30 BEGIN ATOM
M  V30 1 N -1.5974 -0.3231 0.0 0
M  V30 2 C -0.6371 -0.7664 0.0 0
M  V30 3 C -2.4143 -0.8999 0.0 0
M  V30 4 C -0.0326 0.0023 0.0 0
M  V30 5 C 0.2515 -0.504 0.0 0
M  V30 6 C -3.3223 -0.4809 0.0 0
M  V30 7 C -0.0424 1.0625 0.0 0
M  V30 8 C 1.0669 -0.3143 0.0 0
M  V30 9 C 0.3548 0.7451 0.0 0
M  V30 10 C 1.2211 -0.7824 0.0 0
M  V30 11 N -4.1392 -1.0577 0.0 0
M  V30 12 C 0.8126 1.3943 0.0 0
M  V30 13 C 1.8006 -0.0184 0.0 0
M  V30 14 C -5.0472 -0.6386 0.0 0
M  V30 15 C 1.8098 1.0619 0.0 0
M  V30 16 C -5.8641 -1.2154 0.0 0
M  V30 17 C -6.772 -0.7963 0.0 0
M  V30 18 C -7.5889 -1.3731 0.0 0
M  V30 19 C -6.8631 0.1994 0.0 0
M  V30 20 C -8.4969 -0.9541 0.0 0
M  V30 21 C -9.3138 -1.5308 0.0 0
M  V30 22 C -10.2217 -1.1118 0.0 0
M  V30 23 C -11.0386 -1.6886 0.0 0
M  V30 24 C -10.3128 -0.1159 0.0 0
M  V30 END ATOM
M  V30 BEGIN BOND
M  V30 1 1 1 2
M  V30 2 1 1 3
M  V30 3 1 2 4
M  V30 4 1 2 5
M  V30 5 1 3 6
M  V30 6 1 4 7
M  V30 7 1 4 8
M  V30 8 1 5 9
M  V30 9 1 5 10
M  V30 10 1 6 11
M  V30 11 1 7 12
M  V30 12 1 8 13
M  V30 13 1 11 14
M  V30 14 1 12 15
M  V30 15 1 14 16
M  V30 16 2 16 17
M  V30 17 1 17 18
M  V30 18 1 17 19
M  V30 19 1 18 20
M  V30 20 1 20 21
M  V30 21 2 21 22
M  V30 22 1 22 23
M  V30 23 1 22 24
M  V30 24 1 9 12
M  V30 25 1 10 13
M  V30 26 1 13 15
M  V30 END BOND
M  V30 END CTAB
M  END
>  <Column 1>
113

>  <Column 2>
PandemicResponseBox - Plate B

>  <Column 3>
A06

>  <Column 4>
MMV687273

>  <Column 5>
10 mM

>  <Column 6>
ANTIBACTERIALS

>  <Column 7>


>  <Column 8>
None

>  <Column 9>
SQ109

>  <Column 10>
CC(=CCC\C(=C\CNCCNC1C2CC3CC(CC1C3)C2)\C)C

>  <Column 11>
CHEMBL561057

>  <Column 12>


>  <Column 13>
330.6

>  <Column 14>
C22 H38 N2

>  <Tox-Glu>
ATCTOX

>  <Column 15>


>  <Column 16>
38 

>  <Column 17>
0 

>  <Column 18>
1 

>  <Column 19>


>  <Tox-Gal>
CTOXGAL

>  <Column 20>


>  <Column 21>
85 

>  <Column 22>
0 

>  <Column 23>
1 

>  <Column 24>


>  <Column 25>


>  <PAMPA>
PAMPA

>  <Column 26>
undetected

>  <Column 27>
low sensitivity

>  <Column 28>


>  <Mouse>
ATMETMOU

>  <Column 29>
421

>  <Column 30>


$$$$
Compound 115
Actelion Java MolfileCreator 2.0

  0  0  0  0  0  0              0 V3000
M  V30 BEGIN CTAB
M  V30 COUNTS 27 29 0 0 0
M  V30 BEGIN ATOM
M  V30 1 O 6.4951 1.4999 0.0 0
M  V30 2 C 6.4951 0.0 0.0 0
M  V30 3 N 5.1961 -0.75 0.0 0
M  V30 4 C 7.7942 -0.75 0.0 0
M  V30 5 N 5.1961 -2.25 0.0 0
M  V30 6 C 3.8971 0.0 0.0 0
M  V30 7 C 7.7942 -2.25 0.0 0
M  V30 8 C 9.0932 0.0 0.0 0
M  V30 9 C 6.4951 -3.0 0.0 0
M  V30 10 C 2.598 -0.75 0.0 0
M  V30 11 C 9.0932 -3.0 0.0 0
M  V30 12 C 10.3923 -0.75 0.0 0
M  V30 13 C 6.4951 -4.5 0.0 0
M  V30 14 O 1.299 0.0 0.0 0
M  V30 15 C 10.3923 -2.25 0.0 0
M  V30 16 O 5.1961 -5.25 0.0 0
M  V30 17 O 7.7942 -5.25 0.0 0
M  V30 18 C 0.0 -0.75 0.0 0
M  V30 19 C -1.299 0.0 0.0 0
M  V30 20 C 0.0 -2.2499 0.0 0
M  V30 21 C -2.598 -0.7499 0.0 0
M  V30 22 C -1.299 -2.9999 0.0 0
M  V30 23 C -2.598 -2.2499 0.0 0
M  V30 24 C -3.8971 -2.9999 0.0 0
M  V30 25 C -3.1471 -4.299 0.0 0
M  V30 26 C -5.1961 -3.7499 0.0 0
M  V30 27 C -4.6471 -1.7009 0.0 0
M  V30 END ATOM
M  V30 BEGIN BOND
M  V30 1 2 1 2
M  V30 2 1 2 3
M  V30 3 1 2 4
M  V30 4 1 3 5
M  V30 5 1 3 6
M  V30 6 2 4 7
M  V30 7 1 4 8
M  V30 8 2 5 9
M  V30 9 1 6 10
M  V30 10 1 7 11
M  V30 11 2 8 12
M  V30 12 1 9 13
M  V30 13 1 10 14
M  V30 14 2 11 15
M  V30 15 2 13 16
M  V30 16 1 13 17
M  V30 17 1 14 18
M  V30 18 2 18 19
M  V30 19 1 18 20
M  V30 20 1 19 21
M  V30 21 2 20 22
M  V30 22 2 21 23
M  V30 23 1 23 24
M  V30 24 1 24 25
M  V30 25 1 24 26
M  V30 26 1 24 27
M  V30 27 1 7 9
M  V30 28 1 12 15
M  V30 29 1 22 23
M  V30 END BOND
M  V30 END CTAB
M  END
>  <Column 1>
114

>  <Column 2>
PandemicResponseBox - Plate B

>  <Column 3>
B06

>  <Column 4>
MMV1634387

>  <Column 5>
10 mM

>  <Column 6>
ANTIBACTERIALS

>  <Column 7>


>  <Column 8>
None

>  <Column 9>


>  <Column 10>
O=[C]1[N](N=C(C(=O)O)C2=C1C=CC=C2)CCOC3=CC=C(C(C)(C)C)C=C3

>  <Column 11>
CHEMBL1353868

>  <Column 12>


>  <Column 13>
366.4

>  <Column 14>
C21 H22 N2 O4

>  <Tox-Glu>
ATCTOX

>  <Column 15>


>  <Column 16>
91 

>  <Column 17>
89 

>  <Column 18>
98 

>  <Column 19>


>  <Tox-Gal>
CTOXGAL

>  <Column 20>


>  <Column 21>
98 

>  <Column 22>
88 

>  <Column 23>
97 

>  <Column 24>


>  <Column 25>


>  <PAMPA>
PAMPA

>  <Column 26>
40

>  <Column 27>


>  <Column 28>


>  <Mouse>
ATMETMOU

>  <Column 29>
-24

>  <Column 30>


$$$$
Compound 116
Actelion Java MolfileCreator 2.0

  0  0  0  0  0  0              0 V3000
M  V30 BEGIN CTAB
M  V30 COUNTS 31 36 0 0 0
M  V30 BEGIN ATOM
M  V30 1 Cl 8.5161 0.769 0.0 0
M  V30 2 C 7.5216 0.8736 0.0 0
M  V30 3 C 6.9338 0.0646 0.0 0
M  V30 4 C 7.1148 1.7871 0.0 0
M  V30 5 C 5.9392 0.1691 0.0 0
M  V30 6 C 6.1203 1.8916 0.0 0
M  V30 7 C 5.5325 1.0826 0.0 0
M  V30 8 C 5.1961 -0.4999 0.0 0
M  V30 9 N 4.538 0.9781 0.0 0
M  V30 10 C 4.3301 0.0 0.0 0
M  V30 11 C 5.1961 -1.4999 0.0 0
M  V30 12 C 3.4641 -0.5 0.0 0
M  V30 13 C 4.3301 -1.9999 0.0 0
M  V30 14 O 2.598 0.0 0.0 0
M  V30 15 C 3.4641 -1.4999 0.0 0
M  V30 16 C 4.1222 -2.9781 0.0 0
M  V30 17 C 1.732 -0.5 0.0 0
M  V30 18 N 2.7209 -2.1691 0.0 0
M  V30 19 C 3.1276 -3.0826 0.0 0
M  V30 20 C 4.71 -3.7871 0.0 0
M  V30 21 C 0.866 0.0 0.0 0
M  V30 22 C 2.7209 -3.9962 0.0 0
M  V30 23 C 4.3032 -4.7007 0.0 0
M  V30 24 N 0.0 -0.5 0.0 0
M  V30 25 C 3.3087 -4.8052 0.0 0
M  V30 26 Cl 4.891 -5.5097 0.0 0
M  V30 27 N -0.9135 -0.0932 0.0 0
M  V30 28 C -0.1045 -1.4945 0.0 0
M  V30 29 N -1.5826 -0.8364 0.0 0
M  V30 30 N -1.0826 -1.7024 0.0 0
M  V30 31 N 0.6386 -2.1636 0.0 0
M  V30 END ATOM
M  V30 BEGIN BOND
M  V30 1 1 1 2
M  V30 2 2 2 3
M  V30 3 1 2 4
M  V30 4 1 3 5
M  V30 5 2 4 6
M  V30 6 2 5 7
M  V30 7 1 5 8
M  V30 8 1 7 9
M  V30 9 2 8 10
M  V30 10 1 8 11
M  V30 11 1 10 12
M  V30 12 2 11 13
M  V30 13 1 12 14
M  V30 14 2 12 15
M  V30 15 1 13 16
M  V30 16 1 14 17
M  V30 17 1 15 18
M  V30 18 2 16 19
M  V30 19 1 16 20
M  V30 20 1 17 21
M  V30 21 1 19 22
M  V30 22 2 20 23
M  V30 23 1 21 24
M  V30 24 2 22 25
M  V30 25 1 23 26
M  V30 26 1 24 27
M  V30 27 1 24 28
M  V30 28 2 27 29
M  V30 29 2 28 30
M  V30 30 1 28 31
M  V30 31 1 6 7
M  V30 32 1 9 10
M  V30 33 1 13 15
M  V30 34 1 18 19
M  V30 35 1 23 25
M  V30 36 1 29 30
M  V30 END BOND
M  V30 END CTAB
M  END
>  <Column 1>
115

>  <Column 2>
PandemicResponseBox - Plate B

>  <Column 3>
C06

>  <Column 4>
MMV1633966

>  <Column 5>
10 mM

>  <Column 6>
ANTIBACTERIALS

>  <Column 7>


>  <Column 8>
None

>  <Column 9>


>  <Column 10>
ClC6=CC1=C([NH]C4=C1C=C3C2=C(C=CC(=C2)Cl)[NH]C3=C4OCC[N]5N=NN=C5N)C=C6

>  <Column 11>
NA

>  <Column 12>
US 20100069355

>  <Column 13>
452.3

>  <Column 14>
C21 H15 Cl2 N7 O

>  <Tox-Glu>
ATCTOX

>  <Column 15>


>  <Column 16>
72 

>  <Column 17>
0 

>  <Column 18>
1 

>  <Column 19>


>  <Tox-Gal>
CTOXGAL

>  <Column 20>


>  <Column 21>
98 

>  <Column 22>
1 

>  <Column 23>
1 

>  <Column 24>


>  <Column 25>


>  <PAMPA>
PAMPA

>  <Column 26>
undetected

>  <Column 27>
low sensitivity

>  <Column 28>


>  <Mouse>
ATMETMOU

>  <Column 29>
1

>  <Column 30>


$$$$
Compound 117
Actelion Java MolfileCreator 2.0

  0  0  0  0  0  0              0 V3000
M  V30 BEGIN CTAB
M  V30 COUNTS 23 25 0 0 0
M  V30 BEGIN ATOM
M  V30 1 Cl 7.7942 -0.75 0.0 0
M  V30 2 C 6.4952 0.0 0.0 0
M  V30 3 C 6.4952 1.5 0.0 0
M  V30 4 C 5.1961 -0.75 0.0 0
M  V30 5 Cl 7.7942 2.25 0.0 0
M  V30 6 C 5.1961 2.25 0.0 0
M  V30 7 C 3.8971 0.0 0.0 0
M  V30 8 C 3.8971 1.5 0.0 0
M  V30 9 S 2.598 -0.75 0.0 0
M  V30 10 O 1.848 -2.049 0.0 0
M  V30 11 O 3.348 -2.049 0.0 0
M  V30 12 N 1.299 0.0 0.0 0
M  V30 13 C 0.0 -0.75 0.0 0
M  V30 14 C -1.299 0.0 0.0 0
M  V30 15 C 0.0 -2.25 0.0 0
M  V30 16 C -2.598 -0.75 0.0 0
M  V30 17 C -1.299 -3.0 0.0 0
M  V30 18 C -2.598 -2.25 0.0 0
M  V30 19 N -3.8971 -3.0 0.0 0
M  V30 20 C -5.2674 -2.3898 0.0 0
M  V30 21 C -4.0539 -4.4917 0.0 0
M  V30 22 C -6.2711 -3.5046 0.0 0
M  V30 23 C -5.5211 -4.8036 0.0 0
M  V30 END ATOM
M  V30 BEGIN BOND
M  V30 1 1 1 2
M  V30 2 2 2 3
M  V30 3 1 2 4
M  V30 4 1 3 5
M  V30 5 1 3 6
M  V30 6 2 4 7
M  V30 7 2 6 8
M  V30 8 1 7 9
M  V30 9 2 9 10
M  V30 10 2 9 11
M  V30 11 1 9 12
M  V30 12 1 12 13
M  V30 13 2 13 14
M  V30 14 1 13 15
M  V30 15 1 14 16
M  V30 16 2 15 17
M  V30 17 2 16 18
M  V30 18 1 18 19
M  V30 19 1 19 20
M  V30 20 1 19 21
M  V30 21 2 20 22
M  V30 22 2 21 23
M  V30 23 1 7 8
M  V30 24 1 17 18
M  V30 25 1 22 23
M  V30 END BOND
M  V30 END CTAB
M  END
>  <Column 1>
116

>  <Column 2>
PandemicResponseBox - Plate B

>  <Column 3>
D06

>  <Column 4>
MMV1505642

>  <Column 5>
10 mM

>  <Column 6>
ANTIBACTERIALS

>  <Column 7>


>  <Column 8>
None

>  <Column 9>


>  <Column 10>
Clc1ccc(cc1Cl)S(=O)(=O)Nc2ccc(cc2)n3cccc3

>  <Column 11>
CHEMBL1528043

>  <Column 12>


>  <Column 13>
367.3

>  <Column 14>
C16H12Cl2N2O2S

>  <Tox-Glu>
ATCTOX

>  <Column 15>


>  <Column 16>
81 

>  <Column 17>
0 

>  <Column 18>
1 

>  <Column 19>


>  <Tox-Gal>
CTOXGAL

>  <Column 20>


>  <Column 21>
90 

>  <Column 22>
0 

>  <Column 23>
1 

>  <Column 24>


>  <Column 25>


>  <PAMPA>
PAMPA

>  <Column 26>
47

>  <Column 27>


>  <Column 28>


>  <Mouse>
ATMETMOU

>  <Column 29>
46

>  <Column 30>


$$$$
Compound 118
Actelion Java MolfileCreator 2.0

  0  0  0  0  0  0              0 V3000
M  V30 BEGIN CTAB
M  V30 COUNTS 25 27 0 0 0
M  V30 BEGIN ATOM
M  V30 1 Cl 8.1757 -9.9724 0.0 0
M  V30 2 C 9.1794 -8.8577 0.0 0
M  V30 3 C 10.6466 -9.1696 0.0 0
M  V30 4 C 8.7159 -7.4311 0.0 0
M  V30 5 Cl 11.1101 -10.5961 0.0 0
M  V30 6 C 11.6503 -8.0548 0.0 0
M  V30 7 C 9.7196 -6.3164 0.0 0
M  V30 8 C 11.1868 -6.6283 0.0 0
M  V30 9 C 9.256 -4.8898 0.0 0
M  V30 10 N 10.2597 -3.7751 0.0 0
M  V30 11 C 9.7962 -2.3485 0.0 0
M  V30 12 N 10.7999 -1.2338 0.0 0
M  V30 13 N 8.329 -2.0366 0.0 0
M  V30 14 C 10.3364 0.1927 0.0 0
M  V30 15 C 7.8655 -0.6101 0.0 0
M  V30 16 O 11.3401 1.3074 0.0 0
M  V30 17 C 8.8692 0.5046 0.0 0
M  V30 18 N 6.4951 0.0 0.0 0
M  V30 19 N 8.1192 1.8036 0.0 0
M  V30 20 C 6.6519 1.4917 0.0 0
M  V30 21 C 5.1961 -0.75 0.0 0
M  V30 22 C 3.8971 0.0 0.0 0
M  V30 23 C 2.598 -0.75 0.0 0
M  V30 24 C 1.299 0.0 0.0 0
M  V30 25 O 0.0 -0.75 0.0 0
M  V30 END ATOM
M  V30 BEGIN BOND
M  V30 1 1 1 2
M  V30 2 2 2 3
M  V30 3 1 2 4
M  V30 4 1 3 5
M  V30 5 1 3 6
M  V30 6 2 4 7
M  V30 7 2 6 8
M  V30 8 1 7 9
M  V30 9 1 9 10
M  V30 10 1 10 11
M  V30 11 2 11 12
M  V30 12 1 11 13
M  V30 13 1 12 14
M  V30 14 2 13 15
M  V30 15 1 14 16
M  V30 16 2 14 17
M  V30 17 1 15 18
M  V30 18 1 17 19
M  V30 19 1 18 20
M  V30 20 1 18 21
M  V30 21 1 21 22
M  V30 22 1 22 23
M  V30 23 1 23 24
M  V30 24 1 24 25
M  V30 25 1 7 8
M  V30 26 1 15 17
M  V30 27 2 19 20
M  V30 END BOND
M  V30 END CTAB
M  END
>  <Column 1>
117

>  <Column 2>
PandemicResponseBox - Plate B

>  <Column 3>
E06

>  <Column 4>
MMV1593542

>  <Column 5>
10 mM

>  <Column 6>
ANTIBACTERIALS

>  <Column 7>


>  <Column 8>
None

>  <Column 9>


>  <Column 10>
OCCCCn1cnc2c(O)nc(NCc3ccc(Cl)c(Cl)c3)nc12

>  <Column 11>
CHEMBL182072

>  <Column 12>


>  <Column 13>
382.2

>  <Column 14>
C16 H17 Cl2 N5 O2

>  <Tox-Glu>
ATCTOX

>  <Column 15>


>  <Column 16>
96 

>  <Column 17>
93 

>  <Column 18>
95 

>  <Column 19>


>  <Tox-Gal>
CTOXGAL

>  <Column 20>


>  <Column 21>
101 

>  <Column 22>
88 

>  <Column 23>
94 

>  <Column 24>


>  <Column 25>


>  <PAMPA>
PAMPA

>  <Column 26>
undetected

>  <Column 27>
low sensitivity

>  <Column 28>


>  <Mouse>
ATMETMOU

>  <Column 29>
21

>  <Column 30>


$$$$
Compound 119
Actelion Java MolfileCreator 2.0

  0  0  0  0  0  0              0 V3000
M  V30 BEGIN CTAB
M  V30 COUNTS 12 12 0 0 0
M  V30 BEGIN ATOM
M  V30 1 P 1.299 4.5 0.0 0
M  V30 2 O 2.049 5.799 0.0 0
M  V30 3 O 0.549 5.799 0.0 0
M  V30 4 C 0.0 3.75 0.0 0
M  V30 5 C 2.598 3.75 0.0 0
M  V30 6 C 0.0 2.25 0.0 0
M  V30 7 C 2.598 2.25 0.0 0
M  V30 8 C 1.299 1.5 0.0 0
M  V30 9 N 0.0 0.75 0.0 0
M  V30 10 C 1.299 0.0 0.0 0
M  V30 11 O 2.598 -0.75 0.0 0
M  V30 12 O 0.0 -0.75 0.0 0
M  V30 END ATOM
M  V30 BEGIN BOND
M  V30 1 2 1 2
M  V30 2 1 1 3
M  V30 3 1 1 4
M  V30 4 1 1 5
M  V30 5 1 4 6
M  V30 6 1 5 7
M  V30 7 1 6 8
M  V30 8 1 8 9
M  V30 9 1 8 10
M  V30 10 2 10 11
M  V30 11 1 10 12
M  V30 12 1 7 8
M  V30 END BOND
M  V30 END CTAB
M  END
>  <Column 1>
118

>  <Column 2>
PandemicResponseBox - Plate B

>  <Column 3>
F06

>  <Column 4>
MMV1593538

>  <Column 5>
10 mM

>  <Column 6>
ANTIBACTERIALS

>  <Column 7>
1

>  <Column 8>
Hydrochloric acid

>  <Column 9>


>  <Column 10>
NC1(CCP(=O)(O)CC1)C(=O)O

>  <Column 11>
CHEMBL3120859

>  <Column 12>


>  <Column 13>
229.6

>  <Column 14>
C6 H12 N O4 P

>  <Tox-Glu>
ATCTOX

>  <Column 15>


>  <Column 16>
99 

>  <Column 17>
96 

>  <Column 18>
99 

>  <Column 19>


>  <Tox-Gal>
CTOXGAL

>  <Column 20>


>  <Column 21>
104 

>  <Column 22>
101 

>  <Column 23>
108 

>  <Column 24>


>  <Column 25>


>  <PAMPA>
PAMPA

>  <Column 26>
444

>  <Column 27>


>  <Column 28>


>  <Mouse>
ATMETMOU

>  <Column 29>


>  <Column 30>
Not determined; Low sensitivity

$$$$
Compound 120
Actelion Java MolfileCreator 2.0

  0  0  0  0  0  0              0 V3000
M  V30 BEGIN CTAB
M  V30 COUNTS 41 44 0 0 0
M  V30 BEGIN ATOM
M  V30 1 S 5.1961 -2.4318 0.0 0
M  V30 2 C 5.4549 -1.4659 0.0 0 CFG=1
M  V30 3 C 5.9032 -3.1389 0.0 0
M  V30 4 N 6.4208 -1.2071 0.0 0
M  V30 5 C 5.1961 -0.5 0.0 0 CFG=1
M  V30 6 C 6.8691 -2.8801 0.0 0
M  V30 7 C 7.128 -1.9142 0.0 0
M  V30 8 C 6.162 -0.2411 0.0 0
M  V30 9 N 4.3301 0.0 0.0 0
M  V30 10 C 7.5762 -3.5872 0.0 0
M  V30 11 C 8.0939 -1.6553 0.0 0
M  V30 12 O 6.662 0.6248 0.0 0
M  V30 13 C 3.4641 -0.5 0.0 0
M  V30 14 C 7.3174 -4.5531 0.0 0
M  V30 15 O 8.801 -2.3625 0.0 0
M  V30 16 O 8.3527 -0.6894 0.0 0
M  V30 17 O 3.4641 -1.5 0.0 0
M  V30 18 C 2.598 0.0 0.0 0
M  V30 19 C 6.3515 -4.8119 0.0 0
M  V30 20 C 9.3186 -0.4306 0.0 0
M  V30 21 N 1.732 -0.5 0.0 0
M  V30 22 C 2.598 1.0 0.0 0
M  V30 23 S 5.5744 -4.1826 0.0 0
M  V30 24 C 5.9931 -5.7455 0.0 0
M  V30 25 O 9.5774 0.5352 0.0 0
M  V30 26 O 1.732 -1.5 0.0 0
M  V30 27 N 3.407 1.5877 0.0 0
M  V30 28 C 1.789 1.5877 0.0 0
M  V30 29 C 4.7357 -4.7273 0.0 0
M  V30 30 N 4.9945 -5.6932 0.0 0
M  V30 31 C 6.5378 -6.5842 0.0 0
M  V30 32 C 10.5434 0.794 0.0 0
M  V30 33 C 0.866 -2.0 0.0 0
M  V30 34 C 3.098 2.5388 0.0 0
M  V30 35 S 2.098 2.5388 0.0 0
M  V30 36 O 11.2505 0.0869 0.0 0
M  V30 37 C 10.8022 1.76 0.0 0
M  V30 38 N 3.6858 3.3478 0.0 0
M  V30 39 C 9.8363 2.0188 0.0 0
M  V30 40 C 11.061 2.7259 0.0 0
M  V30 41 C 11.7681 1.5012 0.0 0
M  V30 END ATOM
M  V30 BEGIN BOND
M  V30 1 1 2 1 CFG=3
M  V30 2 1 1 3
M  V30 3 1 2 4
M  V30 4 1 5 2
M  V30 5 1 3 6
M  V30 6 1 4 7
M  V30 7 1 4 8
M  V30 8 1 5 9 CFG=3
M  V30 9 1 6 10
M  V30 10 1 7 11
M  V30 11 2 8 12
M  V30 12 1 9 13
M  V30 13 2 10 14
M  V30 14 2 11 15
M  V30 15 1 11 16
M  V30 16 2 13 17
M  V30 17 1 13 18
M  V30 18 1 14 19
M  V30 19 1 16 20
M  V30 20 2 18 21
M  V30 21 1 18 22
M  V30 22 1 19 23
M  V30 23 2 19 24
M  V30 24 1 20 25
M  V30 25 1 21 26
M  V30 26 1 22 27
M  V30 27 2 22 28
M  V30 28 1 23 29
M  V30 29 1 24 30
M  V30 30 1 24 31
M  V30 31 1 25 32
M  V30 32 1 26 33
M  V30 33 2 27 34
M  V30 34 1 28 35
M  V30 35 2 32 36
M  V30 36 1 32 37
M  V30 37 1 34 38
M  V30 38 1 37 39
M  V30 39 1 37 40
M  V30 40 1 37 41
M  V30 41 1 5 8
M  V30 42 2 6 7
M  V30 43 2 29 30
M  V30 44 1 34 35
M  V30 END BOND
M  V30 BEGIN COLLECTION
M  V30 MDLV30/STEABS ATOMS=(2 2 5)
M  V30 END COLLECTION
M  V30 END CTAB
M  END
>  <Column 1>
119

>  <Column 2>
PandemicResponseBox - Plate B

>  <Column 3>
G06

>  <Column 4>
MMV002560

>  <Column 5>
10 mM

>  <Column 6>
ANTIBACTERIALS

>  <Column 7>


>  <Column 8>
None

>  <Column 9>
Cefditoren pivoxil

>  <Column 10>
CO\N=C(/C(=O)N[C@H]1[C@H]2SCC(=C(N2C1=O)C(=O)OCOC(=O)C(C)(C)C)\C=C/c3scnc3C)\c4csc(N)n4

>  <Column 11>
CHEMBL454446

>  <Column 12>


>  <Column 13>
620.7

>  <Column 14>
C25H28N6O7S3

>  <Tox-Glu>
ATCTOX

>  <Column 15>


>  <Column 16>
101 

>  <Column 17>
86 

>  <Column 18>
51 

>  <Column 19>


>  <Tox-Gal>
CTOXGAL

>  <Column 20>


>  <Column 21>
105 

>  <Column 22>
94 

>  <Column 23>
46 

>  <Column 24>


>  <Column 25>


>  <PAMPA>
PAMPA

>  <Column 26>
122

>  <Column 27>


>  <Column 28>


>  <Mouse>
ATMETMOU

>  <Column 29>


>  <Column 30>
Not determined; Low sensitivity

$$$$
Compound 121
Actelion Java MolfileCreator 2.0

  0  0  0  0  0  0              0 V3000
M  V30 BEGIN CTAB
M  V30 COUNTS 32 34 0 0 0
M  V30 BEGIN ATOM
M  V30 1 O 2.598 -2.25 0.0 0
M  V30 2 C 2.598 -0.75 0.0 0 CFG=2
M  V30 3 C 3.8971 -3.0 0.0 0 CFG=1
M  V30 4 O 1.299 0.0 0.0 0
M  V30 5 C 3.8971 0.0 0.0 0 CFG=2
M  V30 6 C 5.1961 -2.25 0.0 0 CFG=2
M  V30 7 C 3.8971 -4.5 0.0 0
M  V30 8 C 0.0 -0.75 0.0 0 CFG=2
M  V30 9 O 3.8971 1.4999 0.0 0
M  V30 10 C 5.1961 -0.75 0.0 0 CFG=2
M  V30 11 O 6.4951 -3.0 0.0 0
M  V30 12 O 2.598 -5.25 0.0 0
M  V30 13 C -1.299 0.0 0.0 0 CFG=1
M  V30 14 C 0.0 -2.25 0.0 0 CFG=2
M  V30 15 N 6.4951 0.0 0.0 0
M  V30 16 O -1.299 1.5 0.0 0
M  V30 17 C -2.598 -0.7499 0.0 0 CFG=2
M  V30 18 N 1.299 -3.0 0.0 0
M  V30 19 C -1.299 -2.9999 0.0 0
M  V30 20 O -3.8971 0.0 0.0 0
M  V30 21 C -2.598 -2.2499 0.0 0 CFG=2
M  V30 22 C -5.1961 -0.7499 0.0 0 CFG=1
M  V30 23 N -3.8971 -2.9999 0.0 0
M  V30 24 O -5.1961 -2.2499 0.0 0
M  V30 25 C -6.4951 0.0 0.0 0 CFG=2
M  V30 26 C -6.4951 -2.9999 0.0 0 CFG=1
M  V30 27 N -6.4951 1.5 0.0 0
M  V30 28 C -7.7942 -0.7499 0.0 0
M  V30 29 C -7.7942 -2.2499 0.0 0 CFG=2
M  V30 30 C -6.4951 -4.4999 0.0 0
M  V30 31 O -9.0932 -2.9999 0.0 0
M  V30 32 N -7.7942 -5.2499 0.0 0
M  V30 END ATOM
M  V30 BEGIN BOND
M  V30 1 1 2 1
M  V30 2 1 3 1
M  V30 3 1 2 4 CFG=3
M  V30 4 1 5 2
M  V30 5 1 6 3
M  V30 6 1 3 7 CFG=1
M  V30 7 1 8 4 CFG=1
M  V30 8 1 5 9 CFG=3
M  V30 9 1 10 5
M  V30 10 1 6 11 CFG=3
M  V30 11 1 7 12
M  V30 12 1 13 8
M  V30 13 1 14 8
M  V30 14 1 10 15 CFG=1
M  V30 15 1 13 16 CFG=3
M  V30 16 1 17 13
M  V30 17 1 14 18 CFG=3
M  V30 18 1 14 19
M  V30 19 1 17 20 CFG=1
M  V30 20 1 21 17
M  V30 21 1 22 20 CFG=1
M  V30 22 1 21 23 CFG=3
M  V30 23 1 22 24
M  V30 24 1 25 22
M  V30 25 1 26 24
M  V30 26 1 25 27 CFG=1
M  V30 27 1 25 28
M  V30 28 1 29 26
M  V30 29 1 26 30 CFG=3
M  V30 30 1 29 31 CFG=1
M  V30 31 1 30 32
M  V30 32 1 6 10
M  V30 33 1 19 21
M  V30 34 1 28 29
M  V30 END BOND
M  V30 BEGIN COLLECTION
M  V30 MDLV30/STEABS ATOMS=(14 2 3 5 6 8 10 13 14 17 21 22 25 26 29)
M  V30 END COLLECTION
M  V30 END CTAB
M  END
>  <Column 1>
120

>  <Column 2>
PandemicResponseBox - Plate B

>  <Column 3>
H06

>  <Column 4>
MMV002459

>  <Column 5>
10 mM

>  <Column 6>
ANTIBACTERIALS

>  <Column 7>


>  <Column 8>
None

>  <Column 9>
Tobramycin

>  <Column 10>
NC[C@H]1O[C@H](O[C@@H]2[C@@H](N)C[C@@H](N)[C@H](O[C@H]3O[C@H](CO)[C@@H](O)[C@H](N)[C@H]3O)[C@H]2O)[C@H](N)C[C@@H]1O

>  <Column 11>
CHEMBL1747

>  <Column 12>


>  <Column 13>
467.5

>  <Column 14>
C18H37N5O9

>  <Tox-Glu>
ATCTOX

>  <Column 15>


>  <Column 16>
99 

>  <Column 17>
97 

>  <Column 18>
102 

>  <Column 19>


>  <Tox-Gal>
CTOXGAL

>  <Column 20>


>  <Column 21>
104 

>  <Column 22>
98 

>  <Column 23>
107 

>  <Column 24>


>  <Column 25>


>  <PAMPA>
PAMPA

>  <Column 26>
undetected

>  <Column 27>
low sensitivity

>  <Column 28>


>  <Mouse>
ATMETMOU

>  <Column 29>


>  <Column 30>
Not determined; Low sensitivity

$$$$
Compound 122
Actelion Java MolfileCreator 2.0

  0  0  0  0  0  0              0 V3000
M  V30 BEGIN CTAB
M  V30 COUNTS 15 16 0 0 0
M  V30 BEGIN ATOM
M  V30 1 S 4.9721 -1.2546 0.0 0
M  V30 2 O 6.3424 -1.8647 0.0 0
M  V30 3 O 6.1856 -0.3729 0.0 0
M  V30 4 C 3.9684 -0.1398 0.0 0
M  V30 5 C 4.2221 -2.5536 0.0 0 CFG=1
M  V30 6 C 2.598 -0.75 0.0 0 CFG=1
M  V30 7 C 4.9721 0.9747 0.0 0
M  V30 8 C 3.5048 1.2866 0.0 0
M  V30 9 N 2.7548 -2.2417 0.0 0
M  V30 10 C 3.9102 -4.0208 0.0 0
M  V30 11 C 1.299 0.0 0.0 0
M  V30 12 C 2.443 -3.709 0.0 0
M  V30 13 O 1.299 1.5 0.0 0
M  V30 14 O 0.0 -0.75 0.0 0
M  V30 15 O 1.185 -4.5259 0.0 0
M  V30 END ATOM
M  V30 BEGIN BOND
M  V30 1 2 1 2
M  V30 2 2 1 3
M  V30 3 1 1 4
M  V30 4 1 5 1
M  V30 5 1 6 4
M  V30 6 1 4 7
M  V30 7 1 4 8
M  V30 8 1 5 9 CFG=3
M  V30 9 1 5 10
M  V30 10 1 6 11 CFG=1
M  V30 11 1 9 12
M  V30 12 2 11 13
M  V30 13 1 11 14
M  V30 14 2 12 15
M  V30 15 1 6 9
M  V30 16 1 10 12
M  V30 END BOND
M  V30 BEGIN COLLECTION
M  V30 MDLV30/STEABS ATOMS=(2 5 6)
M  V30 END COLLECTION
M  V30 END CTAB
M  END
>  <Column 1>
121

>  <Column 2>
PandemicResponseBox - Plate B

>  <Column 3>
A07

>  <Column 4>
MMV637945

>  <Column 5>
10 mM

>  <Column 6>
ANTIBACTERIALS

>  <Column 7>


>  <Column 8>
None

>  <Column 9>
Sulbactam

>  <Column 10>
CC1(C)[C@@H](N2[C@@H](CC2=O)S1(=O)=O)C(=O)O

>  <Column 11>
CHEMBL403

>  <Column 12>


>  <Column 13>
233.2

>  <Column 14>
C8H11NO5S

>  <Tox-Glu>
ATCTOX

>  <Column 15>


>  <Column 16>
99 

>  <Column 17>
98 

>  <Column 18>
99 

>  <Column 19>


>  <Tox-Gal>
CTOXGAL

>  <Column 20>


>  <Column 21>
102 

>  <Column 22>
95 

>  <Column 23>
102 

>  <Column 24>


>  <Column 25>


>  <PAMPA>
PAMPA

>  <Column 26>
undetected

>  <Column 27>
low sensitivity

>  <Column 28>


>  <Mouse>
ATMETMOU

>  <Column 29>


>  <Column 30>
Not determined; Low sensitivity

$$$$
Compound 123
Actelion Java MolfileCreator 2.0

  0  0  0  0  0  0              0 V3000
M  V30 BEGIN CTAB
M  V30 COUNTS 18 19 0 0 0
M  V30 BEGIN ATOM
M  V30 1 F 2.598 1.0 0.0 0
M  V30 2 C 2.598 0.0 0.0 0
M  V30 3 C 1.732 -0.5 0.0 0
M  V30 4 C 3.4641 -0.4999 0.0 0
M  V30 5 C 1.732 -1.5 0.0 0
M  V30 6 C 0.866 0.0 0.0 0
M  V30 7 C 3.4641 -1.4999 0.0 0
M  V30 8 C 2.598 -1.9999 0.0 0
M  V30 9 C 0.0 -0.5 0.0 0
M  V30 10 O 4.3301 -1.9999 0.0 0
M  V30 11 O 2.598 -2.9999 0.0 0
M  V30 12 C 5.1961 -1.4999 0.0 0
M  V30 13 C 6.0621 -1.9999 0.0 0
M  V30 14 C 5.1961 -0.4999 0.0 0
M  V30 15 N 6.9282 -1.4999 0.0 0
M  V30 16 N 6.0621 -2.9999 0.0 0
M  V30 17 C 6.0621 0.0 0.0 0
M  V30 18 C 6.9282 -0.4999 0.0 0
M  V30 END ATOM
M  V30 BEGIN BOND
M  V30 1 1 1 2
M  V30 2 2 2 3
M  V30 3 1 2 4
M  V30 4 1 3 5
M  V30 5 1 3 6
M  V30 6 2 4 7
M  V30 7 2 5 8
M  V30 8 1 6 9
M  V30 9 1 7 10
M  V30 10 1 8 11
M  V30 11 1 10 12
M  V30 12 2 12 13
M  V30 13 1 12 14
M  V30 14 1 13 15
M  V30 15 1 13 16
M  V30 16 2 14 17
M  V30 17 2 15 18
M  V30 18 1 7 8
M  V30 19 1 17 18
M  V30 END BOND
M  V30 END CTAB
M  END
>  <Column 1>
122

>  <Column 2>
PandemicResponseBox - Plate B

>  <Column 3>
B07

>  <Column 4>
MMV1580854

>  <Column 5>
10 mM

>  <Column 6>
ANTIBACTERIALS

>  <Column 7>


>  <Column 8>
None

>  <Column 9>


>  <Column 10>
CCc1cc(O)c(Oc2cccnc2N)cc1F

>  <Column 11>
CHEMBL2178289

>  <Column 12>


>  <Column 13>
248.3

>  <Column 14>
C13 H13 F N2 O2

>  <Tox-Glu>
ATCTOX

>  <Column 15>


>  <Column 16>
102 

>  <Column 17>
98 

>  <Column 18>
70 

>  <Column 19>


>  <Tox-Gal>
CTOXGAL

>  <Column 20>


>  <Column 21>
99 

>  <Column 22>
73 

>  <Column 23>
1 

>  <Column 24>


>  <Column 25>


>  <PAMPA>
PAMPA

>  <Column 26>
260

>  <Column 27>


>  <Column 28>


>  <Mouse>
ATMETMOU

>  <Column 29>
553

>  <Column 30>


$$$$
Compound 124
Actelion Java MolfileCreator 2.0

  0  0  0  0  0  0              0 V3000
M  V30 BEGIN CTAB
M  V30 COUNTS 26 28 0 0 0
M  V30 BEGIN ATOM
M  V30 1 O 9.5543 -3.2787 0.0 0
M  V30 2 C 8.6032 -3.5877 0.0 0
M  V30 3 C 8.2942 -4.5388 0.0 0
M  V30 4 C 7.7942 -3.0 0.0 0
M  V30 5 C 7.2942 -4.5388 0.0 0
M  V30 6 C 8.7942 -5.4048 0.0 0
M  V30 7 O 6.9852 -3.5877 0.0 0
M  V30 8 C 7.7942 -2.0 0.0 0
M  V30 9 C 6.7942 -5.4048 0.0 0
M  V30 10 C 8.2942 -6.2708 0.0 0
M  V30 11 C 6.9282 -1.5 0.0 0
M  V30 12 O 5.7942 -5.4048 0.0 0
M  V30 13 C 7.2942 -6.2708 0.0 0
M  V30 14 C 6.9282 -0.5 0.0 0
M  V30 15 C 6.0621 -2.0 0.0 0
M  V30 16 O 6.7942 -7.1369 0.0 0
M  V30 17 O 7.7942 0.0 0.0 0
M  V30 18 C 6.0621 0.0 0.0 0
M  V30 19 C 5.1961 -1.5 0.0 0
M  V30 20 C 5.1961 -0.5 0.0 0
M  V30 21 O 4.3301 0.0 0.0 0
M  V30 22 C 3.4641 -0.5 0.0 0
M  V30 23 C 2.598 0.0 0.0 0
M  V30 24 C 1.732 -0.5 0.0 0
M  V30 25 C 0.866 0.0 0.0 0
M  V30 26 C 0.0 -0.5 0.0 0
M  V30 END ATOM
M  V30 BEGIN BOND
M  V30 1 2 1 2
M  V30 2 1 2 3
M  V30 3 1 2 4
M  V30 4 2 3 5
M  V30 5 1 3 6
M  V30 6 1 4 7
M  V30 7 2 4 8
M  V30 8 1 5 9
M  V30 9 2 6 10
M  V30 10 1 8 11
M  V30 11 1 9 12
M  V30 12 2 9 13
M  V30 13 2 11 14
M  V30 14 1 11 15
M  V30 15 1 13 16
M  V30 16 1 14 17
M  V30 17 1 14 18
M  V30 18 2 15 19
M  V30 19 2 18 20
M  V30 20 1 20 21
M  V30 21 1 21 22
M  V30 22 1 22 23
M  V30 23 1 23 24
M  V30 24 1 24 25
M  V30 25 1 25 26
M  V30 26 1 5 7
M  V30 27 1 10 13
M  V30 28 1 19 20
M  V30 END BOND
M  V30 END CTAB
M  END
>  <Column 1>
123

>  <Column 2>
PandemicResponseBox - Plate B

>  <Column 3>
C07

>  <Column 4>
MMV1580851

>  <Column 5>
10 mM

>  <Column 6>
ANTIBACTERIALS

>  <Column 7>


>  <Column 8>
None

>  <Column 9>


>  <Column 10>
CCCCCOc1ccc(\C=C\2/Oc3c(O)c(O)ccc3C2=O)c(O)c1

>  <Column 11>
CHEMBL335191

>  <Column 12>


>  <Column 13>
356.4

>  <Column 14>
C20 H20 O6

>  <Tox-Glu>
ATCTOX

>  <Column 15>


>  <Column 16>
76 

>  <Column 17>
52 

>  <Column 18>
10 

>  <Column 19>


>  <Tox-Gal>
CTOXGAL

>  <Column 20>


>  <Column 21>
81 

>  <Column 22>
2 

>  <Column 23>
1 

>  <Column 24>


>  <Column 25>


>  <PAMPA>
PAMPA

>  <Column 26>
53

>  <Column 27>


>  <Column 28>


>  <Mouse>
ATMETMOU

>  <Column 29>
98

>  <Column 30>


$$$$
Compound 125
Actelion Java MolfileCreator 2.0

  0  0  0  0  0  0              0 V3000
M  V30 BEGIN CTAB
M  V30 COUNTS 112 116 0 0 0
M  V30 BEGIN ATOM
M  V30 1 O 28.5788 0.9999 0.0 0
M  V30 2 C 28.5788 0.0 0.0 0
M  V30 3 N 29.4448 -0.5 0.0 0
M  V30 4 C 27.7128 -0.5 0.0 0
M  V30 5 C 30.3108 0.0 0.0 0
M  V30 6 N 26.8467 0.0 0.0 0
M  V30 7 C 27.7128 -1.5 0.0 0
M  V30 8 C 31.1769 -0.5 0.0 0
M  V30 9 C 30.3108 1.0 0.0 0
M  V30 10 C 25.9807 -0.5 0.0 0
M  V30 11 C 28.5788 -2.0 0.0 0
M  V30 12 O 32.0429 0.0 0.0 0
M  V30 13 N 31.1769 -1.4999 0.0 0
M  V30 14 C 31.1769 1.5 0.0 0
M  V30 15 O 25.9807 -1.4999 0.0 0
M  V30 16 C 25.1147 0.0 0.0 0
M  V30 17 C 28.5788 -3.0 0.0 0
M  V30 18 C 29.4448 -1.5 0.0 0
M  V30 19 N 31.2814 2.4945 0.0 0
M  V30 20 C 32.0904 1.0932 0.0 0
M  V30 21 N 24.2487 -0.5 0.0 0
M  V30 22 C 25.1147 1.0 0.0 0
M  V30 23 C 29.4448 -3.5 0.0 0
M  V30 24 C 30.3108 -2.0 0.0 0
M  V30 25 C 32.2595 2.7024 0.0 0
M  V30 26 N 32.7595 1.8364 0.0 0
M  V30 27 C 23.3826 0.0 0.0 0
M  V30 28 C 25.9807 1.5 0.0 0
M  V30 29 C 30.3108 -3.0 0.0 0
M  V30 30 O 23.3826 0.9999 0.0 0
M  V30 31 C 22.5166 -0.5 0.0 0
M  V30 32 C 25.9807 2.5 0.0 0
M  V30 33 N 21.6506 0.0 0.0 0
M  V30 34 C 22.5166 -1.4999 0.0 0
M  V30 35 C 26.8467 3.0 0.0 0
M  V30 36 C 20.7846 -0.5 0.0 0
M  V30 37 C 23.3826 -2.0 0.0 0
M  V30 38 N 26.8467 4.0 0.0 0
M  V30 39 O 20.7846 -1.4999 0.0 0
M  V30 40 C 19.9185 0.0 0.0 0
M  V30 41 C 23.3826 -2.9999 0.0 0
M  V30 42 N 19.0525 -0.5 0.0 0
M  V30 43 C 19.9185 1.0 0.0 0
M  V30 44 N 24.2487 -3.4999 0.0 0
M  V30 45 C 18.1865 0.0 0.0 0
M  V30 46 C 20.7846 1.5 0.0 0
M  V30 47 C 24.2487 -4.5 0.0 0
M  V30 48 O 18.1865 0.9999 0.0 0
M  V30 49 C 17.3205 -0.5 0.0 0
M  V30 50 C 20.7846 2.5 0.0 0
M  V30 51 N 23.3826 -5.0 0.0 0
M  V30 52 N 25.1147 -4.9999 0.0 0
M  V30 53 N 16.4544 0.0 0.0 0
M  V30 54 C 17.3205 -1.4999 0.0 0
M  V30 55 C 21.6506 3.0 0.0 0
M  V30 56 C 15.5884 -0.5 0.0 0
M  V30 57 C 18.1865 -1.9999 0.0 0
M  V30 58 N 21.6506 4.0 0.0 0
M  V30 59 O 15.5884 -1.5 0.0 0
M  V30 60 C 14.7224 0.0 0.0 0
M  V30 61 C 18.1865 -2.9999 0.0 0
M  V30 62 C 19.0525 -1.5 0.0 0
M  V30 63 N 13.8564 -0.5 0.0 0
M  V30 64 C 19.0525 -3.5 0.0 0
M  V30 65 C 19.9185 -2.0 0.0 0
M  V30 66 C 12.9903 0.0 0.0 0
M  V30 67 C 19.9185 -3.0 0.0 0
M  V30 68 O 12.9903 1.0 0.0 0
M  V30 69 C 12.1243 -0.5 0.0 0
M  V30 70 O 20.7846 -3.5 0.0 0
M  V30 71 N 11.2583 0.0 0.0 0
M  V30 72 C 12.1243 -1.4999 0.0 0
M  V30 73 C 10.3923 -0.5 0.0 0
M  V30 74 C 12.9903 -1.9999 0.0 0
M  V30 75 O 10.3923 -1.5 0.0 0
M  V30 76 C 9.5262 0.0 0.0 0
M  V30 77 N 13.0949 -2.9945 0.0 0
M  V30 78 C 13.9039 -1.5932 0.0 0
M  V30 79 N 8.6602 -0.5 0.0 0
M  V30 80 C 9.5262 1.0 0.0 0
M  V30 81 C 14.073 -3.2024 0.0 0
M  V30 82 N 14.573 -2.3364 0.0 0
M  V30 83 C 8.6602 -1.5 0.0 0
M  V30 84 C 8.6602 1.5 0.0 0
M  V30 85 O 9.5262 -2.0 0.0 0
M  V30 86 C 7.7942 -1.9999 0.0 0
M  V30 87 N 8.5557 2.4945 0.0 0
M  V30 88 C 7.7467 1.0932 0.0 0
M  V30 89 N 7.7942 -2.9999 0.0 0
M  V30 90 C 6.9282 -1.4999 0.0 0
M  V30 91 C 7.5775 2.7024 0.0 0
M  V30 92 N 7.0775 1.8364 0.0 0
M  V30 93 C 6.9282 -3.4999 0.0 0
M  V30 94 C 6.9282 -0.4999 0.0 0
M  V30 95 O 6.0621 -2.9999 0.0 0
M  V30 96 C 6.9282 -4.4999 0.0 0
M  V30 97 C 6.0621 0.0 0.0 0
M  V30 98 N 7.7942 -4.9999 0.0 0
M  V30 99 C 6.0621 -4.9999 0.0 0
M  V30 100 N 6.0621 1.0 0.0 0
M  V30 101 C 7.7942 -5.9999 0.0 0
M  V30 102 C 6.0621 -5.9999 0.0 0
M  V30 103 C 5.1961 1.5 0.0 0
M  V30 104 O 6.9282 -6.4999 0.0 0
M  V30 105 C 8.6602 -6.4999 0.0 0
M  V30 106 C 5.1961 -6.4999 0.0 0
M  V30 107 N 4.3301 1.0 0.0 0
M  V30 108 N 5.1961 2.5 0.0 0
M  V30 109 N 9.5262 -5.9999 0.0 0
M  V30 110 C 8.6602 -7.4999 0.0 0
M  V30 111 C 5.1961 -7.4999 0.0 0
M  V30 112 N 4.3301 -7.9999 0.0 0
M  V30 END ATOM
M  V30 BEGIN BOND
M  V30 1 2 1 2
M  V30 2 1 2 3
M  V30 3 1 2 4
M  V30 4 1 3 5
M  V30 5 1 4 6
M  V30 6 1 4 7
M  V30 7 1 5 8
M  V30 8 1 5 9
M  V30 9 1 6 10
M  V30 10 1 7 11
M  V30 11 2 8 12
M  V30 12 1 8 13
M  V30 13 1 9 14
M  V30 14 2 10 15
M  V30 15 1 10 16
M  V30 16 2 11 17
M  V30 17 1 11 18
M  V30 18 1 14 19
M  V30 19 2 14 20
M  V30 20 1 16 21
M  V30 21 1 16 22
M  V30 22 1 17 23
M  V30 23 2 18 24
M  V30 24 2 19 25
M  V30 25 1 20 26
M  V30 26 1 21 27
M  V30 27 1 22 28
M  V30 28 2 23 29
M  V30 29 2 27 30
M  V30 30 1 27 31
M  V30 31 1 28 32
M  V30 32 1 31 33
M  V30 33 1 31 34
M  V30 34 1 32 35
M  V30 35 1 33 36
M  V30 36 1 34 37
M  V30 37 1 35 38
M  V30 38 2 36 39
M  V30 39 1 36 40
M  V30 40 1 37 41
M  V30 41 1 40 42
M  V30 42 1 40 43
M  V30 43 1 41 44
M  V30 44 1 42 45
M  V30 45 1 43 46
M  V30 46 1 44 47
M  V30 47 2 45 48
M  V30 48 1 45 49
M  V30 49 1 46 50
M  V30 50 2 47 51
M  V30 51 1 47 52
M  V30 52 1 49 53
M  V30 53 1 49 54
M  V30 54 1 50 55
M  V30 55 1 53 56
M  V30 56 1 54 57
M  V30 57 1 55 58
M  V30 58 2 56 59
M  V30 59 1 56 60
M  V30 60 2 57 61
M  V30 61 1 57 62
M  V30 62 1 60 63
M  V30 63 1 61 64
M  V30 64 2 62 65
M  V30 65 1 63 66
M  V30 66 2 64 67
M  V30 67 2 66 68
M  V30 68 1 66 69
M  V30 69 1 67 70
M  V30 70 1 69 71
M  V30 71 1 69 72
M  V30 72 1 71 73
M  V30 73 1 72 74
M  V30 74 2 73 75
M  V30 75 1 73 76
M  V30 76 1 74 77
M  V30 77 2 74 78
M  V30 78 1 76 79
M  V30 79 1 76 80
M  V30 80 2 77 81
M  V30 81 1 78 82
M  V30 82 1 79 83
M  V30 83 1 80 84
M  V30 84 2 83 85
M  V30 85 1 83 86
M  V30 86 1 84 87
M  V30 87 2 84 88
M  V30 88 1 86 89
M  V30 89 1 86 90
M  V30 90 2 87 91
M  V30 91 1 88 92
M  V30 92 1 89 93
M  V30 93 1 90 94
M  V30 94 2 93 95
M  V30 95 1 93 96
M  V30 96 1 94 97
M  V30 97 1 96 98
M  V30 98 1 96 99
M  V30 99 1 97 100
M  V30 100 1 98 101
M  V30 101 1 99 102
M  V30 102 1 100 103
M  V30 103 2 101 104
M  V30 104 1 101 105
M  V30 105 1 102 106
M  V30 106 2 103 107
M  V30 107 1 103 108
M  V30 108 1 105 109
M  V30 109 1 105 110
M  V30 110 1 106 111
M  V30 111 1 111 112
M  V30 112 1 24 29
M  V30 113 1 25 26
M  V30 114 1 65 67
M  V30 115 1 81 82
M  V30 116 1 91 92
M  V30 END BOND
M  V30 END CTAB
M  END
>  <Column 1>
124

>  <Column 2>
PandemicResponseBox - Plate B

>  <Column 3>
D07

>  <Column 4>
MMV1579849

>  <Column 5>
10 mM

>  <Column 6>
ANTIBACTERIALS

>  <Column 7>


>  <Column 8>
None

>  <Column 9>
P-113D

>  <Column 10>
CC(N)C(=O)NC(CCCCN)C(=O)NC(CCCNC(=N)N)C(=O)NC(Cc1c[nH]cn1)C(=O)NC(Cc2c[nH]cn2)C(=O)NCC(=O)NC(Cc3ccc(O)cc3)C(=O)NC(CCCCN)C(=O)NC(CCCNC(=N)N)C(=O)NC(CCCCN)C(=O)NC(Cc4ccccc4)C(=O)NC(Cc5c[nH]cn5)C(=O)N

>  <Column 11>
NA

>  <Column 12>
Antimicrobial Agents and Chemotherapy�(2005),�49(3),�1249-1252 

>  <Column 13>
1564

>  <Column 14>
C71 H110 N28 O13

>  <Tox-Glu>
ATCTOX

>  <Column 15>


>  <Column 16>
104 

>  <Column 17>
103 

>  <Column 18>
111 

>  <Column 19>


>  <Tox-Gal>
CTOXGAL

>  <Column 20>


>  <Column 21>
99 

>  <Column 22>
84 

>  <Column 23>
102 

>  <Column 24>


>  <Column 25>


>  <PAMPA>
PAMPA

>  <Column 26>
undetected

>  <Column 27>
low sensitivity

>  <Column 28>


>  <Mouse>
ATMETMOU

>  <Column 29>


>  <Column 30>
Not determined; Low sensitivity

$$$$
Compound 126
Actelion Java MolfileCreator 2.0

  0  0  0  0  0  0              0 V3000
M  V30 BEGIN CTAB
M  V30 COUNTS 18 19 0 0 0
M  V30 BEGIN ATOM
M  V30 1 Cl 5.1961 1.5 0.0 0
M  V30 2 C 4.3301 1.0 0.0 0
M  V30 3 C 3.4641 1.5 0.0 0
M  V30 4 C 4.3301 0.0 0.0 0
M  V30 5 C 2.598 0.9999 0.0 0
M  V30 6 C 3.4641 -0.4999 0.0 0
M  V30 7 C 2.598 0.0 0.0 0
M  V30 8 O 1.732 -0.5 0.0 0
M  V30 9 C 0.866 0.0 0.0 0
M  V30 10 C 0.0 -0.5 0.0 0
M  V30 11 C -0.866 0.0 0.0 0
M  V30 12 C 0.0 -1.4999 0.0 0
M  V30 13 C -1.732 -0.4999 0.0 0
M  V30 14 C -0.866 -1.9999 0.0 0
M  V30 15 C -1.732 -1.4999 0.0 0
M  V30 16 C -2.598 -1.9999 0.0 0
M  V30 17 N -3.4641 -1.4999 0.0 0
M  V30 18 N -2.598 -2.9999 0.0 0
M  V30 END ATOM
M  V30 BEGIN BOND
M  V30 1 1 1 2
M  V30 2 2 2 3
M  V30 3 1 2 4
M  V30 4 1 3 5
M  V30 5 2 4 6
M  V30 6 2 5 7
M  V30 7 1 7 8
M  V30 8 1 8 9
M  V30 9 1 9 10
M  V30 10 2 10 11
M  V30 11 1 10 12
M  V30 12 1 11 13
M  V30 13 2 12 14
M  V30 14 2 13 15
M  V30 15 1 15 16
M  V30 16 2 16 17
M  V30 17 1 16 18
M  V30 18 1 6 7
M  V30 19 1 14 15
M  V30 END BOND
M  V30 END CTAB
M  END
>  <Column 1>
125

>  <Column 2>
PandemicResponseBox - Plate B

>  <Column 3>
E07

>  <Column 4>
MMV1579844

>  <Column 5>
10 mM

>  <Column 6>
ANTIBACTERIALS

>  <Column 7>
1

>  <Column 8>
Hydrochloric acid

>  <Column 9>


>  <Column 10>
NC(=N)c1ccc(COc2ccc(Cl)cc2)cc1

>  <Column 11>
CHEMBL2418045

>  <Column 12>


>  <Column 13>
297.2

>  <Column 14>
C14 H13 Cl N2 O

>  <Tox-Glu>
ATCTOX

>  <Column 15>


>  <Column 16>
76 

>  <Column 17>
1 

>  <Column 18>
1 

>  <Column 19>


>  <Tox-Gal>
CTOXGAL

>  <Column 20>


>  <Column 21>
87 

>  <Column 22>
1 

>  <Column 23>
1 

>  <Column 24>


>  <Column 25>


>  <PAMPA>
PAMPA

>  <Column 26>
1

>  <Column 27>


>  <Column 28>


>  <Mouse>
ATMETMOU

>  <Column 29>
-4

>  <Column 30>


$$$$
Compound 127
Actelion Java MolfileCreator 2.0

  0  0  0  0  0  0              0 V3000
M  V30 BEGIN CTAB
M  V30 COUNTS 18 20 0 0 0
M  V30 BEGIN ATOM
M  V30 1 Cl 1.732 2.4999 0.0 0
M  V30 2 C 1.732 1.4999 0.0 0
M  V30 3 C 0.866 1.0 0.0 0
M  V30 4 C 2.598 0.9999 0.0 0
M  V30 5 C 0.866 0.0 0.0 0
M  V30 6 C 2.598 0.0 0.0 0
M  V30 7 C 0.0 -0.5 0.0 0
M  V30 8 C 1.732 -0.5 0.0 0
M  V30 9 O -0.9135 -0.0932 0.0 0
M  V30 10 N -0.1045 -1.4945 0.0 0
M  V30 11 C -1.5826 -0.8364 0.0 0
M  V30 12 N -1.0826 -1.7024 0.0 0
M  V30 13 C -2.5771 -0.7318 0.0 0
M  V30 14 C -2.9839 0.1816 0.0 0
M  V30 15 C -3.1649 -1.5408 0.0 0
M  V30 16 C -3.9784 0.2861 0.0 0
M  V30 17 C -4.1595 -1.4363 0.0 0
M  V30 18 C -4.5662 -0.5228 0.0 0
M  V30 END ATOM
M  V30 BEGIN BOND
M  V30 1 1 1 2
M  V30 2 2 2 3
M  V30 3 1 2 4
M  V30 4 1 3 5
M  V30 5 2 4 6
M  V30 6 1 5 7
M  V30 7 2 5 8
M  V30 8 1 7 9
M  V30 9 2 7 10
M  V30 10 1 9 11
M  V30 11 1 10 12
M  V30 12 1 11 13
M  V30 13 2 13 14
M  V30 14 1 13 15
M  V30 15 1 14 16
M  V30 16 2 15 17
M  V30 17 2 16 18
M  V30 18 1 6 8
M  V30 19 2 11 12
M  V30 20 1 17 18
M  V30 END BOND
M  V30 END CTAB
M  END
>  <Column 1>
126

>  <Column 2>
PandemicResponseBox - Plate B

>  <Column 3>
F07

>  <Column 4>
MMV141011

>  <Column 5>
10 mM

>  <Column 6>
ANTIBACTERIALS

>  <Column 7>


>  <Column 8>
None

>  <Column 9>


>  <Column 10>
Clc1cccc(c1)c2oc(nn2)c3ccccc3

>  <Column 11>
CHEMBL1549430

>  <Column 12>


>  <Column 13>
256.7

>  <Column 14>
C14H9ClN2O

>  <Tox-Glu>
ATCTOX

>  <Column 15>


>  <Column 16>
94 

>  <Column 17>
80 

>  <Column 18>
63 

>  <Column 19>


>  <Tox-Gal>
CTOXGAL

>  <Column 20>


>  <Column 21>
91 

>  <Column 22>
72 

>  <Column 23>
65 

>  <Column 24>


>  <Column 25>


>  <PAMPA>
PAMPA

>  <Column 26>
268

>  <Column 27>


>  <Column 28>


>  <Mouse>
ATMETMOU

>  <Column 29>


>  <Column 30>
Not determined; Two Peaks

$$$$
Compound 128
Actelion Java MolfileCreator 2.0

  0  0  0  0  0  0              0 V3000
M  V30 BEGIN CTAB
M  V30 COUNTS 15 16 0 0 0
M  V30 BEGIN ATOM
M  V30 1 O 1.0934 -2.1636 0.0 0
M  V30 2 C 1.8365 -1.4945 0.0 0
M  V30 3 O 2.8147 -1.7024 0.0 0
M  V30 4 C 1.732 -0.5 0.0 0 CFG=2
M  V30 5 C 3.3147 -0.8364 0.0 0
M  V30 6 C 2.6455 -0.0932 0.0 0 CFG=2
M  V30 7 C 0.866 0.0 0.0 0
M  V30 8 C 2.8535 0.8848 0.0 0
M  V30 9 C 0.0 -0.5 0.0 0
M  V30 10 C 2.1103 1.554 0.0 0
M  V30 11 N 2.2148 2.5485 0.0 0
M  V30 12 C 1.1322 1.3461 0.0 0
M  V30 13 C 1.3013 2.9552 0.0 0
M  V30 14 C 3.0809 3.0485 0.0 0
M  V30 15 N 0.6322 2.2121 0.0 0
M  V30 END ATOM
M  V30 BEGIN BOND
M  V30 1 2 1 2
M  V30 2 1 2 3
M  V30 3 1 4 2
M  V30 4 1 3 5
M  V30 5 1 6 4
M  V30 6 1 4 7 CFG=1
M  V30 7 1 6 8 CFG=1
M  V30 8 1 7 9
M  V30 9 1 8 10
M  V30 10 1 10 11
M  V30 11 2 10 12
M  V30 12 1 11 13
M  V30 13 1 11 14
M  V30 14 1 12 15
M  V30 15 1 5 6
M  V30 16 2 13 15
M  V30 END BOND
M  V30 BEGIN COLLECTION
M  V30 MDLV30/STEABS ATOMS=(2 4 6)
M  V30 END COLLECTION
M  V30 END CTAB
M  END
>  <Column 1>
127

>  <Column 2>
PandemicResponseBox - Plate B

>  <Column 3>
G07

>  <Column 4>
MMV002516

>  <Column 5>
10 mM

>  <Column 6>
ANTIBACTERIALS

>  <Column 7>
1

>  <Column 8>
Hydrochloric acid

>  <Column 9>
Pilocarpine

>  <Column 10>
CC[C@H]1[C@@H](Cc2cncn2C)COC1=O

>  <Column 11>
CHEMBL1213136

>  <Column 12>


>  <Column 13>
244.8

>  <Column 14>
C11H16N2O2

>  <Tox-Glu>
ATCTOX

>  <Column 15>


>  <Column 16>
97 

>  <Column 17>
94 

>  <Column 18>
101 

>  <Column 19>


>  <Tox-Gal>
CTOXGAL

>  <Column 20>


>  <Column 21>
93 

>  <Column 22>
81 

>  <Column 23>
93 

>  <Column 24>


>  <Column 25>


>  <PAMPA>
PAMPA

>  <Column 26>
undetected

>  <Column 27>
low sensitivity

>  <Column 28>


>  <Mouse>
ATMETMOU

>  <Column 29>
-2

>  <Column 30>


$$$$
Compound 129
Actelion Java MolfileCreator 2.0

  0  0  0  0  0  0              0 V3000
M  V30 BEGIN CTAB
M  V30 COUNTS 25 27 0 0 0
M  V30 BEGIN ATOM
M  V30 1 F 6.5621 1.866 0.0 0
M  V30 2 C 6.0621 1.0 0.0 0
M  V30 3 F 6.9282 0.5 0.0 0
M  V30 4 F 5.5621 0.1339 0.0 0
M  V30 5 O 5.1961 1.5 0.0 0
M  V30 6 C 4.3301 1.0 0.0 0
M  V30 7 C 3.4641 1.5 0.0 0
M  V30 8 C 4.3301 0.0 0.0 0
M  V30 9 C 2.598 0.9999 0.0 0
M  V30 10 C 3.4641 -0.4999 0.0 0
M  V30 11 C 2.598 0.0 0.0 0
M  V30 12 C 1.732 -0.5 0.0 0
M  V30 13 O 0.866 0.0 0.0 0
M  V30 14 C 0.0 -0.5 0.0 0 CFG=2
M  V30 15 C -0.866 0.0 0.0 0
M  V30 16 C 0.0 -1.4999 0.0 0
M  V30 17 O -1.732 -0.4999 0.0 0
M  V30 18 N -0.866 -1.9999 0.0 0
M  V30 19 C -1.732 -1.4999 0.0 0
M  V30 20 C -1.0739 -2.9781 0.0 0
M  V30 21 N -2.4751 -2.1691 0.0 0
M  V30 22 C -2.0684 -3.0826 0.0 0
M  V30 23 N -2.5684 -3.9487 0.0 0 CHG=1 VAL=5
M  V30 24 O -3.5684 -3.9487 0.0 0
M  V30 25 O -2.0684 -4.8147 0.0 0 CHG=-1
M  V30 END ATOM
M  V30 BEGIN BOND
M  V30 1 1 1 2
M  V30 2 1 2 3
M  V30 3 1 2 4
M  V30 4 1 2 5
M  V30 5 1 5 6
M  V30 6 2 6 7
M  V30 7 1 6 8
M  V30 8 1 7 9
M  V30 9 2 8 10
M  V30 10 2 9 11
M  V30 11 1 11 12
M  V30 12 1 12 13
M  V30 13 1 14 13 CFG=1
M  V30 14 1 14 15
M  V30 15 1 14 16
M  V30 16 1 15 17
M  V30 17 1 16 18
M  V30 18 1 17 19
M  V30 19 1 18 20
M  V30 20 2 19 21
M  V30 21 2 20 22
M  V30 22 1 22 23
M  V30 23 2 23 24
M  V30 24 1 23 25
M  V30 25 1 10 11
M  V30 26 1 18 19
M  V30 27 1 21 22
M  V30 END BOND
M  V30 BEGIN COLLECTION
M  V30 MDLV30/STEABS ATOMS=(1 14)
M  V30 END COLLECTION
M  V30 END CTAB
M  END
>  <Column 1>
128

>  <Column 2>
PandemicResponseBox - Plate B

>  <Column 3>
H07

>  <Column 4>
MMV688755

>  <Column 5>
10 mM

>  <Column 6>
ANTIBACTERIALS

>  <Column 7>


>  <Column 8>
None

>  <Column 9>
Pretomanid

>  <Column 10>
FC(F)(F)OC1=CC=C(CO[C@@H]2COC3=NC(=C[N]3C2)[N](=O)=O)C=C1

>  <Column 11>
CHEMBL227875

>  <Column 12>


>  <Column 13>
359.3

>  <Column 14>
C14 H12 F3 N3 O5

>  <Tox-Glu>
ATCTOX

>  <Column 15>


>  <Column 16>
96 

>  <Column 17>
89 

>  <Column 18>
90 

>  <Column 19>


>  <Tox-Gal>
CTOXGAL

>  <Column 20>


>  <Column 21>
92 

>  <Column 22>
83 

>  <Column 23>
95 

>  <Column 24>


>  <Column 25>


>  <PAMPA>
PAMPA

>  <Column 26>
195

>  <Column 27>


>  <Column 28>


>  <Mouse>
ATMETMOU

>  <Column 29>
-6

>  <Column 30>


$$$$
Compound 130
Actelion Java MolfileCreator 2.0

  0  0  0  0  0  0              0 V3000
M  V30 BEGIN CTAB
M  V30 COUNTS 32 37 0 0 0
M  V30 BEGIN ATOM
M  V30 1 O 3.4641 1.4999 0.0 0
M  V30 2 C 2.598 0.9999 0.0 0
M  V30 3 C 1.732 1.4999 0.0 0
M  V30 4 C 2.598 0.0 0.0 0
M  V30 5 C 0.866 0.9999 0.0 0
M  V30 6 C 1.732 -0.5 0.0 0
M  V30 7 C 0.866 0.0 0.0 0
M  V30 8 C 0.0 -0.5 0.0 0
M  V30 9 N -0.9135 -0.0932 0.0 0
M  V30 10 N -0.1045 -1.4945 0.0 0
M  V30 11 C -1.5826 -0.8364 0.0 0
M  V30 12 C -1.0826 -1.7024 0.0 0
M  V30 13 C -2.5826 -0.8364 0.0 0
M  V30 14 C -1.5826 -2.5684 0.0 0
M  V30 15 C -3.0826 -1.7024 0.0 0
M  V30 16 C -2.5826 -2.5684 0.0 0
M  V30 17 C -4.0826 -1.7024 0.0 0
M  V30 18 N -4.6704 -0.8934 0.0 0
M  V30 19 N -4.6704 -2.5114 0.0 0
M  V30 20 C -5.6215 -1.2024 0.0 0
M  V30 21 C -5.6215 -2.2024 0.0 0
M  V30 22 C -6.4875 -0.7024 0.0 0
M  V30 23 C -6.4875 -2.7024 0.0 0
M  V30 24 C -7.3535 -1.2024 0.0 0
M  V30 25 C -7.3535 -2.2024 0.0 0
M  V30 26 N -8.2195 -0.7024 0.0 0
M  V30 27 C -8.2195 0.2975 0.0 0
M  V30 28 C -9.0856 -1.2024 0.0 0
M  V30 29 C -9.0856 0.7975 0.0 0
M  V30 30 C -9.9516 -0.7024 0.0 0
M  V30 31 N -9.9516 0.2975 0.0 0
M  V30 32 C -10.8176 0.7975 0.0 0
M  V30 END ATOM
M  V30 BEGIN BOND
M  V30 1 1 1 2
M  V30 2 2 2 3
M  V30 3 1 2 4
M  V30 4 1 3 5
M  V30 5 2 4 6
M  V30 6 2 5 7
M  V30 7 1 7 8
M  V30 8 2 8 9
M  V30 9 1 8 10
M  V30 10 1 9 11
M  V30 11 1 10 12
M  V30 12 1 11 13
M  V30 13 1 12 14
M  V30 14 2 13 15
M  V30 15 2 14 16
M  V30 16 1 15 17
M  V30 17 2 17 18
M  V30 18 1 17 19
M  V30 19 1 18 20
M  V30 20 1 19 21
M  V30 21 1 20 22
M  V30 22 1 21 23
M  V30 23 2 22 24
M  V30 24 2 23 25
M  V30 25 1 24 26
M  V30 26 1 26 27
M  V30 27 1 26 28
M  V30 28 1 27 29
M  V30 29 1 28 30
M  V30 30 1 29 31
M  V30 31 1 31 32
M  V30 32 1 6 7
M  V30 33 2 11 12
M  V30 34 1 15 16
M  V30 35 2 20 21
M  V30 36 1 24 25
M  V30 37 1 30 31
M  V30 END BOND
M  V30 END CTAB
M  END
>  <Column 1>
129

>  <Column 2>
PandemicResponseBox - Plate B

>  <Column 3>
A08

>  <Column 4>
MMV020752

>  <Column 5>
10 mM

>  <Column 6>
ANTIBACTERIALS

>  <Column 7>


>  <Column 8>
None

>  <Column 9>
Pibenzimol

>  <Column 10>
CN1CCN(CC1)c2ccc3[nH]c(nc3c2)c4ccc5[nH]c(nc5c4)c6ccc(O)cc6

>  <Column 11>
CHEMBL301735

>  <Column 12>


>  <Column 13>
424.5

>  <Column 14>
C25H24N6O

>  <Tox-Glu>
ATCTOX

>  <Column 15>


>  <Column 16>
100 

>  <Column 17>
82 

>  <Column 18>
44 

>  <Column 19>


>  <Tox-Gal>
CTOXGAL

>  <Column 20>


>  <Column 21>
103 

>  <Column 22>
85 

>  <Column 23>
69 

>  <Column 24>


>  <Column 25>


>  <PAMPA>
PAMPA

>  <Column 26>
undetected

>  <Column 27>
low sensitivity

>  <Column 28>


>  <Mouse>
ATMETMOU

>  <Column 29>
24

>  <Column 30>


$$$$
Compound 131
Actelion Java MolfileCreator 2.0

  0  0  0  0  0  0              0 V3000
M  V30 BEGIN CTAB
M  V30 COUNTS 23 24 0 0 0
M  V30 BEGIN ATOM
M  V30 1 O 3.4641 -0.5 0.0 0
M  V30 2 C 2.598 0.0 0.0 0
M  V30 3 N 2.598 1.0 0.0 0
M  V30 4 C 1.732 -0.5 0.0 0
M  V30 5 C 3.3051 1.7071 0.0 0
M  V30 6 C 1.8909 1.7071 0.0 0
M  V30 7 C 0.866 0.0 0.0 0
M  V30 8 C 2.598 2.4142 0.0 0
M  V30 9 C 0.0 -0.5 0.0 0
M  V30 10 C -0.866 0.0 0.0 0
M  V30 11 C 0.0 -1.4999 0.0 0
M  V30 12 C -1.732 -0.4999 0.0 0
M  V30 13 C -0.866 -1.9999 0.0 0
M  V30 14 C -1.732 -1.4999 0.0 0
M  V30 15 C -2.598 0.0 0.0 0
M  V30 16 C -0.866 -2.9999 0.0 0
M  V30 17 O -2.598 -1.9999 0.0 0
M  V30 18 C -3.098 -0.866 0.0 0
M  V30 19 C -3.4641 0.5 0.0 0
M  V30 20 C -2.098 0.866 0.0 0
M  V30 21 C 0.1339 -2.9999 0.0 0
M  V30 22 C -0.866 -3.9999 0.0 0
M  V30 23 C -1.866 -2.9999 0.0 0
M  V30 END ATOM
M  V30 BEGIN BOND
M  V30 1 2 1 2
M  V30 2 1 2 3
M  V30 3 1 2 4
M  V30 4 1 3 5
M  V30 5 1 3 6
M  V30 6 1 4 7
M  V30 7 1 5 8
M  V30 8 1 7 9
M  V30 9 2 9 10
M  V30 10 1 9 11
M  V30 11 1 10 12
M  V30 12 2 11 13
M  V30 13 2 12 14
M  V30 14 1 12 15
M  V30 15 1 13 16
M  V30 16 1 14 17
M  V30 17 1 15 18
M  V30 18 1 15 19
M  V30 19 1 15 20
M  V30 20 1 16 21
M  V30 21 1 16 22
M  V30 22 1 16 23
M  V30 23 1 6 8
M  V30 24 1 13 14
M  V30 END BOND
M  V30 END CTAB
M  END
>  <Column 1>
130

>  <Column 2>
PandemicResponseBox - Plate B

>  <Column 3>
B08

>  <Column 4>
MMV1229204

>  <Column 5>
10 mM

>  <Column 6>
ANTIBACTERIALS

>  <Column 7>


>  <Column 8>
None

>  <Column 9>
AC1PNDOP

>  <Column 10>
CC(C)(C)c1cc(CCC(=O)N2CCC2)cc(c1O)C(C)(C)C

>  <Column 11>
CHEMBL1541983

>  <Column 12>


>  <Column 13>
317.5

>  <Column 14>
C20H31NO2

>  <Tox-Glu>
ATCTOX

>  <Column 15>


>  <Column 16>
96 

>  <Column 17>
89 

>  <Column 18>
74 

>  <Column 19>


>  <Tox-Gal>
CTOXGAL

>  <Column 20>


>  <Column 21>
100 

>  <Column 22>
92 

>  <Column 23>
89 

>  <Column 24>


>  <Column 25>


>  <PAMPA>
PAMPA

>  <Column 26>
373

>  <Column 27>


>  <Column 28>


>  <Mouse>
ATMETMOU

>  <Column 29>
434

>  <Column 30>


$$$$
Compound 132
Actelion Java MolfileCreator 2.0

  0  0  0  0  0  0              0 V3000
M  V30 BEGIN CTAB
M  V30 COUNTS 37 40 0 0 0
M  V30 BEGIN ATOM
M  V30 1 O 3.9116 0.0 0.0 0
M  V30 2 C 5.2155 -0.7528 0.0 0
M  V30 3 O 5.2155 -2.2584 0.0 0
M  V30 4 C 6.5194 0.0 0.0 0
M  V30 5 C 6.5194 1.5056 0.0 0
M  V30 6 C 7.8233 -0.7528 0.0 0
M  V30 7 C 7.7375 2.3905 0.0 0 CFG=1
M  V30 8 C 5.3013 2.3905 0.0 0 CFG=1
M  V30 9 C 9.1272 0.0 0.0 0
M  V30 10 C 7.2722 3.8224 0.0 0 CFG=2
M  V30 11 C 9.2102 2.0775 0.0 0
M  V30 12 O 3.8694 1.9253 0.0 0
M  V30 13 C 5.7666 3.8224 0.0 0
M  V30 14 C 10.4311 -0.7528 0.0 0
M  V30 15 C 8.2796 4.9413 0.0 0 CFG=2
M  V30 16 C 6.5209 5.1445 0.0 0
M  V30 17 C 10.2176 3.1964 0.0 0 CFG=2
M  V30 18 C 2.7505 2.9327 0.0 0
M  V30 19 C 11.735 0.0 0.0 0
M  V30 20 C 9.7523 4.6283 0.0 0 CFG=1
M  V30 21 C 7.8144 6.3732 0.0 0
M  V30 22 C 7.0848 5.361 0.0 0
M  V30 23 O 11.6903 2.8833 0.0 0
M  V30 24 O 3.0636 4.4054 0.0 0
M  V30 25 C 1.3186 2.4675 0.0 0
M  V30 26 C 11.735 1.5056 0.0 0
M  V30 27 C 13.0389 -0.7528 0.0 0
M  V30 28 C 10.7598 5.7472 0.0 0 CFG=2
M  V30 29 C 8.8218 7.4921 0.0 0
M  V30 30 C 10.2945 7.1791 0.0 0 CFG=1
M  V30 31 C 12.2325 5.4341 0.0 0
M  V30 32 C 11.2251 4.3153 0.0 0
M  V30 33 C 11.302 8.298 0.0 0 CFG=1
M  V30 34 C 13.2399 6.553 0.0 0
M  V30 35 C 12.7747 7.9849 0.0 0 CFG=1
M  V30 36 C 10.8367 9.7299 0.0 0
M  V30 37 O 13.7821 9.1038 0.0 0
M  V30 END ATOM
M  V30 BEGIN BOND
M  V30 1 2 1 2
M  V30 2 1 2 3
M  V30 3 1 2 4
M  V30 4 2 4 5
M  V30 5 1 4 6
M  V30 6 1 7 5
M  V30 7 1 8 5
M  V30 8 1 6 9
M  V30 9 1 10 7
M  V30 10 1 7 11 CFG=1
M  V30 11 1 8 12 CFG=1
M  V30 12 1 8 13
M  V30 13 1 9 14
M  V30 14 1 15 10
M  V30 15 1 10 16 CFG=1
M  V30 16 1 17 11
M  V30 17 1 12 18
M  V30 18 2 14 19
M  V30 19 1 20 15
M  V30 20 1 15 21
M  V30 21 1 15 22 CFG=3
M  V30 22 1 17 23 CFG=3
M  V30 23 2 18 24
M  V30 24 1 18 25
M  V30 25 1 19 26
M  V30 26 1 19 27
M  V30 27 1 28 20
M  V30 28 1 21 29
M  V30 29 1 30 28
M  V30 30 1 28 31
M  V30 31 1 28 32 CFG=1
M  V30 32 1 33 30
M  V30 33 1 31 34
M  V30 34 1 35 33
M  V30 35 1 33 36 CFG=3
M  V30 36 1 35 37 CFG=3
M  V30 37 1 10 13
M  V30 38 1 20 17 CFG=3
M  V30 39 1 30 29 CFG=1
M  V30 40 1 34 35
M  V30 END BOND
M  V30 BEGIN COLLECTION
M  V30 MDLV30/STEABS ATOMS=(10 7 8 10 15 17 20 28 30 33 35)
M  V30 END COLLECTION
M  V30 END CTAB
M  END
>  <Column 1>
131

>  <Column 2>
PandemicResponseBox - Plate B

>  <Column 3>
C08

>  <Column 4>
MMV1578575

>  <Column 5>
10 mM

>  <Column 6>
ANTIBACTERIALS

>  <Column 7>


>  <Column 8>
None

>  <Column 9>
Fusidic acid

>  <Column 10>
C[C@@H]1[C@H](O)CC[C@@]2(C)[C@H]1CC[C@@]3(C)[C@H]2[C@H](O)C[C@H]4\C(=C(/CCC=C(C)C)\C(=O)O)\[C@H](C[C@]34C)OC(=O)C

>  <Column 11>
CHEMBL374975

>  <Column 12>


>  <Column 13>
516.7

>  <Column 14>
C31 H48 O6

>  <Tox-Glu>
ATCTOX

>  <Column 15>


>  <Column 16>
96 

>  <Column 17>
96 

>  <Column 18>
98 

>  <Column 19>


>  <Tox-Gal>
CTOXGAL

>  <Column 20>


>  <Column 21>
101 

>  <Column 22>
90 

>  <Column 23>
96 

>  <Column 24>


>  <Column 25>


>  <PAMPA>
PAMPA

>  <Column 26>
undetected

>  <Column 27>
low sensitivity

>  <Column 28>


>  <Mouse>
ATMETMOU

>  <Column 29>


>  <Column 30>
Not determined; Low sensitivity

$$$$
Compound 133
Actelion Java MolfileCreator 2.0

  0  0  0  0  0  0              0 V3000
M  V30 BEGIN CTAB
M  V30 COUNTS 16 18 0 0 0
M  V30 BEGIN ATOM
M  V30 1 O 0.866 0.0 0.0 0
M  V30 2 C 0.0 -0.5 0.0 0 CFG=1
M  V30 3 C -1.0 -0.4999 0.0 0 CFG=2
M  V30 4 C 0.4999 -1.366 0.0 0
M  V30 5 C -0.6666 0.6547 0.0 0
M  V30 6 C -1.4063 -1.456 0.0 0 CFG=2
M  V30 7 C -2.25 -1.799 0.0 0
M  V30 8 C -1.3602 0.3357 0.0 0
M  V30 9 C 0.0 -2.232 0.0 0 CFG=1
M  V30 10 C 1.3659 -1.866 0.0 0
M  V30 11 C 1.3659 -0.866 0.0 0
M  V30 12 C -1.6866 0.6755 0.0 0
M  V30 13 C -2.1666 -0.2113 0.0 0 CFG=2
M  V30 14 C -1.0312 -2.1059 0.0 0
M  V30 15 C -1.75 -2.665 0.0 0
M  V30 16 C -3.1666 -0.2113 0.0 0
M  V30 END ATOM
M  V30 BEGIN BOND
M  V30 1 1 2 1
M  V30 2 1 3 2
M  V30 3 1 2 4
M  V30 4 1 2 5 CFG=1
M  V30 5 1 6 3
M  V30 6 1 3 7
M  V30 7 1 3 8 CFG=1
M  V30 8 1 9 4
M  V30 9 1 4 10
M  V30 10 1 4 11
M  V30 11 1 5 12
M  V30 12 1 6 13 CFG=1
M  V30 13 1 6 14
M  V30 14 1 7 15
M  V30 15 1 13 16 CFG=1
M  V30 16 1 9 14 CFG=1
M  V30 17 1 9 15
M  V30 18 1 12 13
M  V30 END BOND
M  V30 BEGIN COLLECTION
M  V30 MDLV30/STEABS ATOMS=(5 2 3 6 9 13)
M  V30 END COLLECTION
M  V30 END CTAB
M  END
>  <Column 1>
132

>  <Column 2>
PandemicResponseBox - Plate B

>  <Column 3>
D08

>  <Column 4>
MMV1578556

>  <Column 5>
10 mM

>  <Column 6>
ANTIBACTERIALS

>  <Column 7>


>  <Column 8>
None

>  <Column 9>
Patchouli alcohol

>  <Column 10>
C[C@H]1CC[C@@]2(O)C(C)(C)[C@@H]3CC[C@@]2(C)[C@H]1C3

>  <Column 11>
NA

>  <Column 12>
�Molecules�(2013),�18,�963-973,Molecules 2011, 16, 6489-6501

>  <Column 13>
222.4

>  <Column 14>
C15 H26 O

>  <Tox-Glu>
ATCTOX

>  <Column 15>


>  <Column 16>
98 

>  <Column 17>
98 

>  <Column 18>
99 

>  <Column 19>


>  <Tox-Gal>
CTOXGAL

>  <Column 20>


>  <Column 21>
101 

>  <Column 22>
91 

>  <Column 23>
99 

>  <Column 24>


>  <Column 25>


>  <PAMPA>
PAMPA

>  <Column 26>
undetected

>  <Column 27>
low sensitivity

>  <Column 28>


>  <Mouse>
ATMETMOU

>  <Column 29>


>  <Column 30>
Not determined; Low sensitivity

$$$$
Compound 134
Actelion Java MolfileCreator 2.0

  0  0  0  0  0  0              0 V3000
M  V30 BEGIN CTAB
M  V30 COUNTS 21 23 0 0 0
M  V30 BEGIN ATOM
M  V30 1 O 2.598 -0.75 0.0 0
M  V30 2 C 3.8971 0.0 0.0 0
M  V30 3 N 5.1961 -0.7499 0.0 0
M  V30 4 C 3.8971 1.5 0.0 0
M  V30 5 C 6.4951 0.0 0.0 0
M  V30 6 N 5.1106 2.3816 0.0 0
M  V30 7 C 2.6835 2.3816 0.0 0
M  V30 8 C 7.7942 -0.7499 0.0 0
M  V30 9 C 4.6471 3.8082 0.0 0
M  V30 10 C 6.5778 2.0698 0.0 0
M  V30 11 N 3.1471 3.8082 0.0 0
M  V30 12 C 1.257 1.9181 0.0 0
M  V30 13 C 9.0932 0.0 0.0 0
M  V30 14 C 7.7942 -2.2499 0.0 0
M  V30 15 C 5.6508 4.9229 0.0 0
M  V30 16 C 7.5815 3.1845 0.0 0
M  V30 17 C 0.9451 0.4509 0.0 0
M  V30 18 C 10.3923 -0.7499 0.0 0
M  V30 19 C 9.0932 -2.9999 0.0 0
M  V30 20 C 7.118 4.6111 0.0 0
M  V30 21 C 10.3923 -2.2499 0.0 0
M  V30 END ATOM
M  V30 BEGIN BOND
M  V30 1 2 1 2
M  V30 2 1 2 3
M  V30 3 1 2 4
M  V30 4 1 3 5
M  V30 5 1 4 6
M  V30 6 2 4 7
M  V30 7 1 5 8
M  V30 8 1 6 9
M  V30 9 1 6 10
M  V30 10 1 7 11
M  V30 11 1 7 12
M  V30 12 2 8 13
M  V30 13 1 8 14
M  V30 14 1 9 15
M  V30 15 2 10 16
M  V30 16 1 12 17
M  V30 17 1 13 18
M  V30 18 2 14 19
M  V30 19 2 15 20
M  V30 20 2 18 21
M  V30 21 2 9 11
M  V30 22 1 16 20
M  V30 23 1 19 21
M  V30 END BOND
M  V30 END CTAB
M  END
>  <Column 1>
133

>  <Column 2>
PandemicResponseBox - Plate B

>  <Column 3>
E08

>  <Column 4>
MMV1663457

>  <Column 5>
10 mM

>  <Column 6>
ANTIBACTERIALS

>  <Column 7>


>  <Column 8>
None

>  <Column 9>


>  <Column 10>
O=C(NCC1=CC=CC=C1)C2=C(N=C3[N]2C=CC=C3)CC

>  <Column 11>
NA

>  <Column 12>
WO�2011113606

>  <Column 13>
279.3

>  <Column 14>
C17 H17 N3 O

>  <Tox-Glu>
ATCTOX

>  <Column 15>


>  <Column 16>
104 

>  <Column 17>
105 

>  <Column 18>
101 

>  <Column 19>


>  <Tox-Gal>
CTOXGAL

>  <Column 20>


>  <Column 21>
106 

>  <Column 22>
94 

>  <Column 23>
99 

>  <Column 24>


>  <Column 25>


>  <PAMPA>
PAMPA

>  <Column 26>
252

>  <Column 27>


>  <Column 28>


>  <Mouse>
ATMETMOU

>  <Column 29>
359

>  <Column 30>


$$$$
Compound 135
Actelion Java MolfileCreator 2.0

  0  0  0  0  0  0              0 V3000
M  V30 BEGIN CTAB
M  V30 COUNTS 22 25 0 0 0
M  V30 BEGIN ATOM
M  V30 1 S 4.3776 -0.0932 0.0 0
M  V30 2 C 3.4641 -0.5 0.0 0
M  V30 3 C 5.0467 -0.8364 0.0 0
M  V30 4 C 2.598 0.0 0.0 0
M  V30 5 C 3.5686 -1.4945 0.0 0
M  V30 6 C 4.5467 -1.7024 0.0 0
M  V30 7 O 2.598 1.0 0.0 0
M  V30 8 N 1.732 -0.5 0.0 0
M  V30 9 C 0.866 0.0 0.0 0
M  V30 10 C 0.0 -0.5 0.0 0
M  V30 11 C 0.0 -1.4999 0.0 0
M  V30 12 C -0.866 0.0 0.0 0
M  V30 13 C -0.866 -1.9999 0.0 0
M  V30 14 C 0.8062 -2.1445 0.0 0
M  V30 15 C -1.732 -0.4999 0.0 0
M  V30 16 C -1.732 -1.4999 0.0 0
M  V30 17 C -1.0739 -2.9781 0.0 0
M  V30 18 C 0.7017 -3.139 0.0 0
M  V30 19 N -2.4751 -2.1691 0.0 0
M  V30 20 C -2.0684 -3.0826 0.0 0
M  V30 21 C -0.2118 -3.5457 0.0 0
M  V30 22 O -2.5684 -3.9487 0.0 0
M  V30 END ATOM
M  V30 BEGIN BOND
M  V30 1 1 1 2
M  V30 2 1 1 3
M  V30 3 1 2 4
M  V30 4 2 2 5
M  V30 5 2 3 6
M  V30 6 2 4 7
M  V30 7 1 4 8
M  V30 8 1 8 9
M  V30 9 1 9 10
M  V30 10 1 10 11
M  V30 11 2 10 12
M  V30 12 1 11 13
M  V30 13 2 11 14
M  V30 14 1 12 15
M  V30 15 1 13 16
M  V30 16 2 13 17
M  V30 17 1 14 18
M  V30 18 1 16 19
M  V30 19 1 17 20
M  V30 20 1 17 21
M  V30 21 2 20 22
M  V30 22 1 5 6
M  V30 23 2 15 16
M  V30 24 2 18 21
M  V30 25 1 19 20
M  V30 END BOND
M  V30 END CTAB
M  END
>  <Column 1>
134

>  <Column 2>
PandemicResponseBox - Plate B

>  <Column 3>
F08

>  <Column 4>
MMV1341773

>  <Column 5>
10 mM

>  <Column 6>
ANTIBACTERIALS

>  <Column 7>


>  <Column 8>
None

>  <Column 9>


>  <Column 10>
S1C(=CC=C1)C(=O)NCC3=CC=C2C4=C(C(=O)N2)C=CC=C34

>  <Column 11>
CHEMBL1382981

>  <Column 12>


>  <Column 13>
308.4

>  <Column 14>
C17H12N2O2S

>  <Tox-Glu>
ATCTOX

>  <Column 15>


>  <Column 16>
109 

>  <Column 17>
105 

>  <Column 18>
99 

>  <Column 19>


>  <Tox-Gal>
CTOXGAL

>  <Column 20>


>  <Column 21>
106 

>  <Column 22>
99 

>  <Column 23>
98 

>  <Column 24>


>  <Column 25>


>  <PAMPA>
PAMPA

>  <Column 26>
undetected

>  <Column 27>
low sensitivity

>  <Column 28>


>  <Mouse>
ATMETMOU

>  <Column 29>
89

>  <Column 30>
Low sensitivity

$$$$
Compound 136
Actelion Java MolfileCreator 2.0

  0  0  0  0  0  0              0 V3000
M  V30 BEGIN CTAB
M  V30 COUNTS 27 29 0 0 0
M  V30 BEGIN ATOM
M  V30 1 O 1.732 -0.5 0.0 0
M  V30 2 C 0.866 0.0 0.0 0
M  V30 3 O 0.866 1.0 0.0 0
M  V30 4 C 0.0 -0.5 0.0 0
M  V30 5 C -0.866 0.0 0.0 0
M  V30 6 C 0.0 -1.4999 0.0 0
M  V30 7 C -1.732 -0.4999 0.0 0
M  V30 8 C -0.866 -1.9999 0.0 0
M  V30 9 C -1.732 -1.4999 0.0 0
M  V30 10 C -2.598 -1.9999 0.0 0
M  V30 11 C -3.4641 -1.4999 0.0 0
M  V30 12 C -2.598 -2.9999 0.0 0
M  V30 13 C -4.3301 -1.9999 0.0 0
M  V30 14 C -3.4641 -3.4999 0.0 0
M  V30 15 C -4.3301 -2.9999 0.0 0
M  V30 16 O -5.1961 -3.4999 0.0 0
M  V30 17 C -5.1961 -4.4999 0.0 0 CFG=1
M  V30 18 O -6.0621 -4.9999 0.0 0
M  V30 19 C -4.3301 -4.9999 0.0 0 CFG=1
M  V30 20 C -6.0621 -5.9999 0.0 0 CFG=1
M  V30 21 O -3.4641 -4.5 0.0 0
M  V30 22 C -4.3301 -5.9999 0.0 0 CFG=2
M  V30 23 C -5.1961 -6.4999 0.0 0 CFG=2
M  V30 24 C -6.9282 -6.4999 0.0 0
M  V30 25 O -3.4641 -6.4999 0.0 0
M  V30 26 O -5.1961 -7.4999 0.0 0
M  V30 27 O -6.9282 -7.4999 0.0 0
M  V30 END ATOM
M  V30 BEGIN BOND
M  V30 1 2 1 2
M  V30 2 1 2 3
M  V30 3 1 2 4
M  V30 4 2 4 5
M  V30 5 1 4 6
M  V30 6 1 5 7
M  V30 7 2 6 8
M  V30 8 2 7 9
M  V30 9 1 9 10
M  V30 10 2 10 11
M  V30 11 1 10 12
M  V30 12 1 11 13
M  V30 13 2 12 14
M  V30 14 2 13 15
M  V30 15 1 15 16
M  V30 16 1 17 16 CFG=3
M  V30 17 1 17 18
M  V30 18 1 19 17
M  V30 19 1 20 18
M  V30 20 1 19 21 CFG=1
M  V30 21 1 22 19
M  V30 22 1 23 20
M  V30 23 1 20 24 CFG=1
M  V30 24 1 22 25 CFG=1
M  V30 25 1 23 26 CFG=3
M  V30 26 1 24 27
M  V30 27 1 8 9
M  V30 28 1 14 15
M  V30 29 1 22 23
M  V30 END BOND
M  V30 BEGIN COLLECTION
M  V30 MDLV30/STEABS ATOMS=(5 17 19 20 22 23)
M  V30 END COLLECTION
M  V30 END CTAB
M  END
>  <Column 1>
135

>  <Column 2>
PandemicResponseBox - Plate B

>  <Column 3>
G08

>  <Column 4>
MMV1633970

>  <Column 5>
10 mM

>  <Column 6>
ANTIBACTERIALS

>  <Column 7>


>  <Column 8>
None

>  <Column 9>


>  <Column 10>
O=C(O)C3=CC=C(C2=CC=C(O[C@H]1O[C@@H]([C@@H](O)[C@@H]([C@@H]1O)O)CO)C=C2)C=C3

>  <Column 11>
CHEMBL1852236

>  <Column 12>


>  <Column 13>
376.4

>  <Column 14>
C19 H20 O8

>  <Tox-Glu>
ATCTOX

>  <Column 15>


>  <Column 16>
107 

>  <Column 17>
100 

>  <Column 18>
105 

>  <Column 19>


>  <Tox-Gal>
CTOXGAL

>  <Column 20>


>  <Column 21>
105 

>  <Column 22>
96 

>  <Column 23>
101 

>  <Column 24>


>  <Column 25>


>  <PAMPA>
PAMPA

>  <Column 26>
undetected

>  <Column 27>
low sensitivity

>  <Column 28>


>  <Mouse>
ATMETMOU

>  <Column 29>
7

>  <Column 30>


$$$$
Compound 137
Actelion Java MolfileCreator 2.0

  0  0  0  0  0  0              0 V3000
M  V30 BEGIN CTAB
M  V30 COUNTS 40 44 0 0 0
M  V30 BEGIN ATOM
M  V30 1 F 1.732 1.4999 0.0 0
M  V30 2 C 2.598 1.0 0.0 0
M  V30 3 C 2.598 0.0 0.0 0
M  V30 4 C 3.4641 1.4999 0.0 0
M  V30 5 N 1.732 -0.5 0.0 0
M  V30 6 C 3.4641 -0.5 0.0 0
M  V30 7 C 4.3301 1.0 0.0 0
M  V30 8 C 0.866 0.0 0.0 0
M  V30 9 O 3.4641 -1.5 0.0 0
M  V30 10 C 4.3301 0.0 0.0 0
M  V30 11 C 5.1961 1.5 0.0 0
M  V30 12 O 0.866 1.0 0.0 0
M  V30 13 C 0.0 -0.5 0.0 0 CFG=1
M  V30 14 C 2.598 -2.0 0.0 0
M  V30 15 N 5.1961 -0.4999 0.0 0
M  V30 16 O 5.1961 2.5 0.0 0
M  V30 17 C 6.0621 1.0 0.0 0
M  V30 18 C -0.866 0.0 0.0 0
M  V30 19 C 0.0 -1.4999 0.0 0
M  V30 20 C 6.0621 0.0 0.0 0
M  V30 21 C 5.1961 -1.4999 0.0 0
M  V30 22 C 6.9282 1.5 0.0 0
M  V30 23 C -1.732 -0.4999 0.0 0
M  V30 24 C -0.866 -1.9999 0.0 0
M  V30 25 C 4.6961 -2.366 0.0 0
M  V30 26 C 5.6961 -2.366 0.0 0
M  V30 27 O 7.7942 0.9999 0.0 0
M  V30 28 O 6.9282 2.4999 0.0 0
M  V30 29 C -1.732 -1.4999 0.0 0 CFG=2
M  V30 30 C -2.598 -1.9999 0.0 0
M  V30 31 O -3.4641 -1.4999 0.0 0
M  V30 32 C -4.3301 -1.9999 0.0 0
M  V30 33 C -5.1961 -1.4999 0.0 0
M  V30 34 C -4.3301 -2.9999 0.0 0
M  V30 35 C -6.0621 -1.9999 0.0 0
M  V30 36 C -5.1961 -3.4999 0.0 0
M  V30 37 C -6.0621 -2.9999 0.0 0
M  V30 38 N -6.9282 -3.4999 0.0 0 CHG=1 VAL=5
M  V30 39 O -7.7942 -2.9999 0.0 0
M  V30 40 O -6.9282 -4.4999 0.0 0 CHG=-1
M  V30 END ATOM
M  V30 BEGIN BOND
M  V30 1 1 1 2
M  V30 2 2 2 3
M  V30 3 1 2 4
M  V30 4 1 3 5
M  V30 5 1 3 6
M  V30 6 2 4 7
M  V30 7 1 5 8
M  V30 8 1 6 9
M  V30 9 2 6 10
M  V30 10 1 7 11
M  V30 11 2 8 12
M  V30 12 1 13 8 CFG=3
M  V30 13 1 9 14
M  V30 14 1 10 15
M  V30 15 2 11 16
M  V30 16 1 11 17
M  V30 17 1 13 18
M  V30 18 1 13 19
M  V30 19 1 15 20
M  V30 20 1 15 21
M  V30 21 1 17 22
M  V30 22 1 18 23
M  V30 23 1 19 24
M  V30 24 1 21 25
M  V30 25 1 21 26
M  V30 26 2 22 27
M  V30 27 1 22 28
M  V30 28 1 29 23
M  V30 29 1 29 30 CFG=3
M  V30 30 1 30 31
M  V30 31 1 31 32
M  V30 32 2 32 33
M  V30 33 1 32 34
M  V30 34 1 33 35
M  V30 35 2 34 36
M  V30 36 2 35 37
M  V30 37 1 37 38
M  V30 38 2 38 39
M  V30 39 1 38 40
M  V30 40 1 7 10
M  V30 41 2 17 20
M  V30 42 1 24 29
M  V30 43 1 25 26
M  V30 44 1 36 37
M  V30 END BOND
M  V30 BEGIN COLLECTION
M  V30 MDLV30/STEABS ATOMS=(2 13 29)
M  V30 END COLLECTION
M  V30 END CTAB
M  END
>  <Column 1>
136

>  <Column 2>
PandemicResponseBox - Plate B

>  <Column 3>
H08

>  <Column 4>
MMV1633965

>  <Column 5>
10 mM

>  <Column 6>
ANTIBACTERIALS

>  <Column 7>


>  <Column 8>
None

>  <Column 9>


>  <Column 10>
FC4=C(NC(=O)[C@H]2CC[C@@H](COC1=CC=C([N](=O)=O)C=C1)CC2)C(=C3[N](C=C([C](C3=C4)=O)C(=O)O)C5CC5)OC

>  <Column 11>
CHEMBL2203937

>  <Column 12>


>  <Column 13>
553.5

>  <Column 14>
C28 H28 F N3 O8

>  <Tox-Glu>
ATCTOX

>  <Column 15>


>  <Column 16>
98 

>  <Column 17>
96 

>  <Column 18>
95 

>  <Column 19>


>  <Tox-Gal>
CTOXGAL

>  <Column 20>


>  <Column 21>
98 

>  <Column 22>
87 

>  <Column 23>
97 

>  <Column 24>


>  <Column 25>


>  <PAMPA>
PAMPA

>  <Column 26>
213

>  <Column 27>


>  <Column 28>


>  <Mouse>
ATMETMOU

>  <Column 29>
-1

>  <Column 30>


$$$$
Compound 138
Actelion Java MolfileCreator 2.0

  0  0  0  0  0  0              0 V3000
M  V30 BEGIN CTAB
M  V30 COUNTS 30 34 0 0 0
M  V30 BEGIN ATOM
M  V30 1 F 5.1969 2.2503 0.0 0
M  V30 2 C 3.8976 1.5002 0.0 0
M  V30 3 C 2.5984 2.2503 0.0 0
M  V30 4 C 3.8976 0.0 0.0 0
M  V30 5 C 1.2992 1.5002 0.0 0
M  V30 6 C 2.5984 -0.7501 0.0 0
M  V30 7 C 1.2992 0.0 0.0 0
M  V30 8 N 0.0 -0.7501 0.0 0
M  V30 9 C -1.3705 -0.1399 0.0 0
M  V30 10 C -0.1568 -2.2421 0.0 0
M  V30 11 N -1.8341 1.2868 0.0 0
M  V30 12 C -2.3743 -1.2547 0.0 0
M  V30 13 C -1.6242 -2.554 0.0 0
M  V30 14 C -3.3015 1.5987 0.0 0
M  V30 15 C -3.8418 -0.9428 0.0 0
M  V30 16 C -2.2344 -3.9245 0.0 0
M  V30 17 N -4.3054 0.4839 0.0 0
M  V30 18 N -4.8456 -2.0577 0.0 0
M  V30 19 C -3.7264 -4.0813 0.0 0
M  V30 20 C -1.3526 -5.1382 0.0 0
M  V30 21 C -6.313 -1.7458 0.0 0
M  V30 22 C -4.382 -3.4845 0.0 0
M  V30 23 C -4.3292 -5.4494 0.0 0
M  V30 24 C -1.9628 -6.5087 0.0 0
M  V30 25 C -7.3169 -2.8607 0.0 0
M  V30 26 C -5.3859 -4.5994 0.0 0
M  V30 27 C -3.4548 -6.6656 0.0 0
M  V30 28 O -6.8533 -4.2875 0.0 0
M  V30 29 C -8.7843 -2.5488 0.0 0
M  V30 30 C -4.9223 -6.0262 0.0 0
M  V30 END ATOM
M  V30 BEGIN BOND
M  V30 1 1 1 2
M  V30 2 2 2 3
M  V30 3 1 2 4
M  V30 4 1 3 5
M  V30 5 2 4 6
M  V30 6 2 5 7
M  V30 7 1 7 8
M  V30 8 1 8 9
M  V30 9 1 8 10
M  V30 10 2 9 11
M  V30 11 1 9 12
M  V30 12 2 10 13
M  V30 13 1 11 14
M  V30 14 2 12 15
M  V30 15 1 13 16
M  V30 16 2 14 17
M  V30 17 1 15 18
M  V30 18 2 16 19
M  V30 19 1 16 20
M  V30 20 1 18 21
M  V30 21 1 18 22
M  V30 22 1 19 23
M  V30 23 2 20 24
M  V30 24 1 21 25
M  V30 25 1 22 26
M  V30 26 2 23 27
M  V30 27 1 25 28
M  V30 28 1 25 29
M  V30 29 1 26 30
M  V30 30 1 6 7
M  V30 31 1 12 13
M  V30 32 1 15 17
M  V30 33 1 24 27
M  V30 34 1 26 28
M  V30 END BOND
M  V30 END CTAB
M  END
>  <Column 1>
137

>  <Column 2>
PandemicResponseBox - Plate B

>  <Column 3>
A09

>  <Column 4>
MMV093250

>  <Column 5>
10 mM

>  <Column 6>
ANTIBACTERIALS

>  <Column 7>


>  <Column 8>
None

>  <Column 9>


>  <Column 10>
CC1CN(CC(C)O1)c2ncnc3c2c(cn3c4ccc(F)cc4)c5ccccc5

>  <Column 11>
CHEMBL1442698

>  <Column 12>


>  <Column 13>
402.5

>  <Column 14>
C24H23FN4O

>  <Tox-Glu>
ATCTOX

>  <Column 15>


>  <Column 16>
98 

>  <Column 17>
83 

>  <Column 18>
66 

>  <Column 19>


>  <Tox-Gal>
CTOXGAL

>  <Column 20>


>  <Column 21>
92 

>  <Column 22>
0 

>  <Column 23>
1 

>  <Column 24>


>  <Column 25>


>  <PAMPA>
PAMPA

>  <Column 26>
288

>  <Column 27>


>  <Column 28>


>  <Mouse>
ATMETMOU

>  <Column 29>
256

>  <Column 30>
Large variations

$$$$
Compound 139
Actelion Java MolfileCreator 2.0

  0  0  0  0  0  0              0 V3000
M  V30 BEGIN CTAB
M  V30 COUNTS 32 36 0 0 0
M  V30 BEGIN ATOM
M  V30 1 F 11.6913 -7.4999 0.0 0
M  V30 2 C 10.3923 -6.7499 0.0 0
M  V30 3 C 10.3923 -5.2499 0.0 0
M  V30 4 C 9.0932 -7.4999 0.0 0
M  V30 5 C 9.0932 -4.4999 0.0 0
M  V30 6 C 7.7942 -6.7499 0.0 0
M  V30 7 C 7.7942 -5.2499 0.0 0
M  V30 8 C 6.4951 -4.4999 0.0 0
M  V30 9 N 6.4951 -2.9999 0.0 0
M  V30 10 C 5.1961 -5.2499 0.0 0
M  V30 11 C 5.1961 -2.2499 0.0 0
M  V30 12 C 3.8971 -4.5 0.0 0
M  V30 13 C 3.8971 -2.9999 0.0 0
M  V30 14 C 5.1961 -0.7499 0.0 0
M  V30 15 N 2.598 -5.25 0.0 0
M  V30 16 C 2.598 -2.2499 0.0 0
M  V30 17 C 3.8971 0.0 0.0 0
M  V30 18 C 2.598 -0.75 0.0 0
M  V30 19 N 1.299 0.0 0.0 0
M  V30 20 C 0.0 -0.75 0.0 0
M  V30 21 N -1.299 0.0 0.0 0
M  V30 22 C 0.0 -2.25 0.0 0
M  V30 23 C -2.598 -0.7499 0.0 0
M  V30 24 C -1.299 -2.9999 0.0 0
M  V30 25 N -2.598 -2.2499 0.0 0
M  V30 26 N -3.8971 0.0 0.0 0
M  V30 27 C -1.299 -4.4999 0.0 0
M  V30 28 C -2.598 -5.2499 0.0 0
M  V30 29 C 0.0 -5.25 0.0 0
M  V30 30 C -2.598 -6.7499 0.0 0
M  V30 31 C 0.0 -6.75 0.0 0
M  V30 32 C -1.299 -7.4999 0.0 0
M  V30 END ATOM
M  V30 BEGIN BOND
M  V30 1 1 1 2
M  V30 2 2 2 3
M  V30 3 1 2 4
M  V30 4 1 3 5
M  V30 5 2 4 6
M  V30 6 2 5 7
M  V30 7 1 7 8
M  V30 8 2 8 9
M  V30 9 1 8 10
M  V30 10 1 9 11
M  V30 11 2 10 12
M  V30 12 1 11 13
M  V30 13 2 11 14
M  V30 14 1 12 15
M  V30 15 2 13 16
M  V30 16 1 14 17
M  V30 17 1 16 18
M  V30 18 1 18 19
M  V30 19 1 19 20
M  V30 20 2 20 21
M  V30 21 1 20 22
M  V30 22 1 21 23
M  V30 23 2 22 24
M  V30 24 2 23 25
M  V30 25 1 23 26
M  V30 26 1 24 27
M  V30 27 2 27 28
M  V30 28 1 27 29
M  V30 29 1 28 30
M  V30 30 2 29 31
M  V30 31 2 30 32
M  V30 32 1 6 7
M  V30 33 1 12 13
M  V30 34 2 17 18
M  V30 35 1 24 25
M  V30 36 1 31 32
M  V30 END BOND
M  V30 END CTAB
M  END
>  <Column 1>
138

>  <Column 2>
PandemicResponseBox - Plate B

>  <Column 3>
B09

>  <Column 4>
MMV1593541

>  <Column 5>
10 mM

>  <Column 6>
ANTIBACTERIALS

>  <Column 7>


>  <Column 8>
None

>  <Column 9>


>  <Column 10>
Nc1cc(nc2ccc(Nc3cc(nc(N)n3)c4ccccc4)cc12)c5ccc(F)cc5

>  <Column 11>
CHEMBL2152077

>  <Column 12>


>  <Column 13>
422.5

>  <Column 14>
C25 H19 F N6

>  <Tox-Glu>
ATCTOX

>  <Column 15>


>  <Column 16>
0 

>  <Column 17>
0 

>  <Column 18>
1 

>  <Column 19>


>  <Tox-Gal>
CTOXGAL

>  <Column 20>


>  <Column 21>
0 

>  <Column 22>
0 

>  <Column 23>
0 

>  <Column 24>


>  <Column 25>


>  <PAMPA>
PAMPA

>  <Column 26>
9

>  <Column 27>


>  <Column 28>


>  <Mouse>
ATMETMOU

>  <Column 29>
6

>  <Column 30>


$$$$
Compound 140
Actelion Java MolfileCreator 2.0

  0  0  0  0  0  0              0 V3000
M  V30 BEGIN CTAB
M  V30 COUNTS 29 33 0 0 0
M  V30 BEGIN ATOM
M  V30 1 Br 3.3757 -2.5167 0.0 0
M  V30 2 C 3.0667 -1.5657 0.0 0
M  V30 3 C 2.0885 -1.3577 0.0 0
M  V30 4 C 3.7358 -0.8225 0.0 0
M  V30 5 C 1.7795 -0.4067 0.0 0
M  V30 6 C 3.4268 0.1284 0.0 0
M  V30 7 C 2.4487 0.3364 0.0 0
M  V30 8 C 0.866 0.0 0.0 0
M  V30 9 N 1.9487 1.2024 0.0 0
M  V30 10 C 0.0 -0.5 0.0 0
M  V30 11 C 0.9705 0.9945 0.0 0
M  V30 12 N -0.9135 -0.0932 0.0 0
M  V30 13 N -0.1045 -1.4945 0.0 0
M  V30 14 C -1.5826 -0.8364 0.0 0
M  V30 15 C -1.0826 -1.7024 0.0 0
M  V30 16 C -2.5771 -0.7318 0.0 0
M  V30 17 C -1.4894 -2.6159 0.0 0
M  V30 18 C -2.9839 0.1816 0.0 0
M  V30 19 C -3.1649 -1.5408 0.0 0
M  V30 20 C -2.4839 -2.7205 0.0 0
M  V30 21 C -0.9016 -3.4249 0.0 0
M  V30 22 C -3.9784 0.2861 0.0 0
M  V30 23 C -4.1595 -1.4363 0.0 0
M  V30 24 C -2.8906 -3.634 0.0 0
M  V30 25 C -1.3083 -4.3385 0.0 0
M  V30 26 C -4.5662 -0.5228 0.0 0
M  V30 27 C -2.3028 -4.443 0.0 0
M  V30 28 F -5.5607 -0.4182 0.0 0
M  V30 29 F -2.7096 -5.3566 0.0 0
M  V30 END ATOM
M  V30 BEGIN BOND
M  V30 1 1 1 2
M  V30 2 2 2 3
M  V30 3 1 2 4
M  V30 4 1 3 5
M  V30 5 2 4 6
M  V30 6 2 5 7
M  V30 7 1 5 8
M  V30 8 1 7 9
M  V30 9 1 8 10
M  V30 10 2 8 11
M  V30 11 2 10 12
M  V30 12 1 10 13
M  V30 13 1 12 14
M  V30 14 1 13 15
M  V30 15 1 14 16
M  V30 16 1 15 17
M  V30 17 2 16 18
M  V30 18 1 16 19
M  V30 19 2 17 20
M  V30 20 1 17 21
M  V30 21 1 18 22
M  V30 22 2 19 23
M  V30 23 1 20 24
M  V30 24 2 21 25
M  V30 25 2 22 26
M  V30 26 2 24 27
M  V30 27 1 26 28
M  V30 28 1 27 29
M  V30 29 1 6 7
M  V30 30 1 9 11
M  V30 31 2 14 15
M  V30 32 1 23 26
M  V30 33 1 25 27
M  V30 END BOND
M  V30 END CTAB
M  END
>  <Column 1>
139

>  <Column 2>
PandemicResponseBox - Plate B

>  <Column 3>
C09

>  <Column 4>
MMV1593537

>  <Column 5>
10 mM

>  <Column 6>
ANTIBACTERIALS

>  <Column 7>


>  <Column 8>
None

>  <Column 9>


>  <Column 10>
Fc1ccc(cc1)c2nc([nH]c2c3ccc(F)cc3)c4c[nH]c5ccc(Br)cc45

>  <Column 11>
CHEMBL1082479

>  <Column 12>


>  <Column 13>
450.3

>  <Column 14>
C23 H14 Br F2 N3

>  <Tox-Glu>
ATCTOX

>  <Column 15>


>  <Column 16>
2 

>  <Column 17>
0 

>  <Column 18>
1 

>  <Column 19>


>  <Tox-Gal>
CTOXGAL

>  <Column 20>


>  <Column 21>
21 

>  <Column 22>
0 

>  <Column 23>
1 

>  <Column 24>


>  <Column 25>


>  <PAMPA>
PAMPA

>  <Column 26>
5

>  <Column 27>


>  <Column 28>


>  <Mouse>
ATMETMOU

>  <Column 29>
1

>  <Column 30>


$$$$
Compound 141
Actelion Java MolfileCreator 2.0

  0  0  0  0  0  0              0 V3000
M  V30 BEGIN CTAB
M  V30 COUNTS 30 34 0 0 0
M  V30 BEGIN ATOM
M  V30 1 S 0.9705 0.9945 0.0 0
M  V30 2 C 0.866 0.0 0.0 0
M  V30 3 C 1.9487 1.2024 0.0 0
M  V30 4 C 0.0 -0.5 0.0 0
M  V30 5 C 1.7795 -0.4067 0.0 0
M  V30 6 C 2.4487 0.3364 0.0 0
M  V30 7 C 2.3554 2.1159 0.0 0 CFG=2
M  V30 8 N -0.9135 -0.0932 0.0 0
M  V30 9 C -0.1045 -1.4945 0.0 0
M  V30 10 N 3.3499 2.2205 0.0 0
M  V30 11 N 1.7676 2.9249 0.0 0
M  V30 12 C -1.5826 -0.8364 0.0 0
M  V30 13 S -1.0826 -1.7024 0.0 0
M  V30 14 C 3.7566 3.134 0.0 0
M  V30 15 C 3.9377 1.4114 0.0 0
M  V30 16 C 2.1743 3.8385 0.0 0
M  V30 17 C 0.7731 2.8204 0.0 0
M  V30 18 C -2.5771 -0.7318 0.0 0
M  V30 19 O 4.7512 3.2385 0.0 0
M  V30 20 C 3.1689 3.943 0.0 0
M  V30 21 C 3.531 0.4979 0.0 0
M  V30 22 C 4.9322 1.516 0.0 0
M  V30 23 C 1.5866 4.6475 0.0 0
M  V30 24 C 3.5756 4.8566 0.0 0
M  V30 25 C 4.1187 -0.311 0.0 0
M  V30 26 C 5.52 0.707 0.0 0
M  V30 27 C 1.9933 5.5611 0.0 0
M  V30 28 C 2.9878 5.6656 0.0 0
M  V30 29 C 5.1133 -0.2065 0.0 0
M  V30 30 F 3.3945 6.5791 0.0 0
M  V30 END ATOM
M  V30 BEGIN BOND
M  V30 1 1 1 2
M  V30 2 1 1 3
M  V30 3 1 2 4
M  V30 4 2 2 5
M  V30 5 2 3 6
M  V30 6 1 7 3 CFG=1
M  V30 7 1 4 8
M  V30 8 2 4 9
M  V30 9 1 7 10
M  V30 10 1 7 11
M  V30 11 2 8 12
M  V30 12 1 9 13
M  V30 13 1 10 14
M  V30 14 1 10 15
M  V30 15 1 11 16
M  V30 16 1 11 17
M  V30 17 1 12 18
M  V30 18 2 14 19
M  V30 19 1 14 20
M  V30 20 2 15 21
M  V30 21 1 15 22
M  V30 22 1 16 23
M  V30 23 1 20 24
M  V30 24 1 21 25
M  V30 25 2 22 26
M  V30 26 2 23 27
M  V30 27 2 24 28
M  V30 28 2 25 29
M  V30 29 1 28 30
M  V30 30 1 5 6
M  V30 31 1 12 13
M  V30 32 2 16 20
M  V30 33 1 26 29
M  V30 34 1 27 28
M  V30 END BOND
M  V30 BEGIN COLLECTION
M  V30 MDLV30/STERAC1 ATOMS=(1 7)
M  V30 END COLLECTION
M  V30 END CTAB
M  END
>  <Column 1>
140

>  <Column 2>
PandemicResponseBox - Plate B

>  <Column 3>
D09

>  <Column 4>
MMV1582492

>  <Column 5>
10 mM

>  <Column 6>
ANTIBACTERIALS

>  <Column 7>


>  <Column 8>
None

>  <Column 9>


>  <Column 10>
CN1C(N(C(=O)c2cc(F)ccc12)c3ccccc3)c4ccc(s4)c5csc(C)n5

>  <Column 11>
CHEMBL3109593

>  <Column 12>


>  <Column 13>
435.5

>  <Column 14>
C23 H18 F N3 O S2

>  <Tox-Glu>
ATCTOX

>  <Column 15>


>  <Column 16>
94 

>  <Column 17>
95 

>  <Column 18>
86 

>  <Column 19>


>  <Tox-Gal>
CTOXGAL

>  <Column 20>


>  <Column 21>
91 

>  <Column 22>
68 

>  <Column 23>
74 

>  <Column 24>


>  <Column 25>


>  <PAMPA>
PAMPA

>  <Column 26>
285

>  <Column 27>


>  <Column 28>


>  <Mouse>
ATMETMOU

>  <Column 29>
>768

>  <Column 30>


$$$$
Compound 142
Actelion Java MolfileCreator 2.0

  0  0  0  0  0  0              0 V3000
M  V30 BEGIN CTAB
M  V30 COUNTS 25 27 0 0 0
M  V30 BEGIN ATOM
M  V30 1 S 15.2617 3.7125 0.0 0
M  V30 2 C 14.2581 2.5978 0.0 0
M  V30 3 C 16.6321 3.1024 0.0 0
M  V30 4 N 15.0081 1.2987 0.0 0
M  V30 5 C 12.7663 2.7546 0.0 0
M  V30 6 C 16.4753 1.6106 0.0 0
M  V30 7 N 12.0163 4.0536 0.0 0
M  V30 8 N 11.7626 1.6398 0.0 0
M  V30 9 O 10.549 3.7417 0.0 0
M  V30 10 C 10.3923 2.2499 0.0 0
M  V30 11 C 9.0932 1.4999 0.0 0
M  V30 12 C 7.7942 2.2499 0.0 0
M  V30 13 C 9.0932 0.0 0.0 0
M  V30 14 C 6.4951 1.5 0.0 0
M  V30 15 C 7.7942 -0.75 0.0 0
M  V30 16 N 6.4951 0.0 0.0 0
M  V30 17 C 5.1961 -0.75 0.0 0
M  V30 18 O 5.1961 -2.25 0.0 0
M  V30 19 C 3.8971 0.0 0.0 0
M  V30 20 C 2.598 -0.75 0.0 0
M  V30 21 C 1.299 0.0 0.0 0
M  V30 22 C 0.0 -0.75 0.0 0
M  V30 23 F 0.7499 -2.049 0.0 0
M  V30 24 F -1.299 -1.4999 0.0 0
M  V30 25 F -0.7499 0.549 0.0 0
M  V30 END ATOM
M  V30 BEGIN BOND
M  V30 1 1 1 2
M  V30 2 1 1 3
M  V30 3 2 2 4
M  V30 4 1 2 5
M  V30 5 2 3 6
M  V30 6 2 5 7
M  V30 7 1 5 8
M  V30 8 1 7 9
M  V30 9 2 8 10
M  V30 10 1 10 11
M  V30 11 1 11 12
M  V30 12 1 11 13
M  V30 13 1 12 14
M  V30 14 1 13 15
M  V30 15 1 14 16
M  V30 16 1 16 17
M  V30 17 2 17 18
M  V30 18 1 17 19
M  V30 19 1 19 20
M  V30 20 1 20 21
M  V30 21 1 21 22
M  V30 22 1 22 23
M  V30 23 1 22 24
M  V30 24 1 22 25
M  V30 25 1 4 6
M  V30 26 1 9 10
M  V30 27 1 15 16
M  V30 END BOND
M  V30 END CTAB
M  END
>  <Column 1>
141

>  <Column 2>
PandemicResponseBox - Plate B

>  <Column 3>
E09

>  <Column 4>
MMV1582491

>  <Column 5>
10 mM

>  <Column 6>
ANTIBACTERIALS

>  <Column 7>


>  <Column 8>
None

>  <Column 9>


>  <Column 10>
FC(F)(F)CCCC(=O)N1CCC(CC1)c2onc(n2)c3nccs3

>  <Column 11>
CHEMBL1946956

>  <Column 12>


>  <Column 13>
374.4

>  <Column 14>
C15 H17 F3 N4 O2 S

>  <Tox-Glu>
ATCTOX

>  <Column 15>


>  <Column 16>
106 

>  <Column 17>
103 

>  <Column 18>
106 

>  <Column 19>


>  <Tox-Gal>
CTOXGAL

>  <Column 20>


>  <Column 21>
107 

>  <Column 22>
93 

>  <Column 23>
102 

>  <Column 24>


>  <Column 25>


>  <PAMPA>
PAMPA

>  <Column 26>
226

>  <Column 27>


>  <Column 28>


>  <Mouse>
ATMETMOU

>  <Column 29>
10

>  <Column 30>


$$$$
Compound 143
Actelion Java MolfileCreator 2.0

  0  0  0  0  0  0              0 V3000
M  V30 BEGIN CTAB
M  V30 COUNTS 23 25 0 0 0
M  V30 BEGIN ATOM
M  V30 1 S 5.2797 -0.067 0.0 0
M  V30 2 C 4.3137 -0.3258 0.0 0
M  V30 3 C 5.5385 0.8988 0.0 0 CFG=2
M  V30 4 C 3.9554 -1.2594 0.0 0
M  V30 5 C 3.5366 0.3034 0.0 0
M  V30 6 C 6.4721 1.2572 0.0 0
M  V30 7 C 4.9092 1.676 0.0 0
M  V30 8 N 2.9567 -1.2071 0.0 0
M  V30 9 C 4.5 -2.0981 0.0 0
M  V30 10 C 2.6979 -0.2411 0.0 0 CFG=1
M  V30 11 N 6.4197 2.2558 0.0 0
M  V30 12 C 5.4538 2.5146 0.0 0
M  V30 13 C 1.9908 -1.4659 0.0 0
M  V30 14 O 4.046 -2.9891 0.0 0
M  V30 15 O 5.4986 -2.0457 0.0 0
M  V30 16 C 1.732 -0.5 0.0 0 CFG=1
M  V30 17 C 7.1969 2.8852 0.0 0
M  V30 18 O 1.4908 -2.3319 0.0 0
M  V30 19 C 0.866 0.0 0.0 0 CFG=2
M  V30 20 N 8.1305 2.5268 0.0 0
M  V30 21 C 7.0404 3.8728 0.0 0
M  V30 22 O 0.866 1.0 0.0 0
M  V30 23 C 0.0 -0.5 0.0 0
M  V30 END ATOM
M  V30 BEGIN BOND
M  V30 1 1 1 2
M  V30 2 1 3 1 CFG=1
M  V30 3 2 2 4
M  V30 4 1 2 5
M  V30 5 1 3 6
M  V30 6 1 3 7
M  V30 7 1 4 8
M  V30 8 1 4 9
M  V30 9 1 10 5
M  V30 10 1 6 11
M  V30 11 1 7 12
M  V30 12 1 8 13
M  V30 13 2 9 14
M  V30 14 1 9 15
M  V30 15 1 16 10
M  V30 16 1 11 17
M  V30 17 2 13 18
M  V30 18 1 19 16
M  V30 19 2 17 20
M  V30 20 1 17 21
M  V30 21 1 19 22 CFG=1
M  V30 22 1 19 23
M  V30 23 1 10 8 CFG=1
M  V30 24 1 11 12
M  V30 25 1 16 13 CFG=1
M  V30 END BOND
M  V30 BEGIN COLLECTION
M  V30 MDLV30/STEABS ATOMS=(4 3 10 16 19)
M  V30 END COLLECTION
M  V30 END CTAB
M  END
>  <Column 1>
142

>  <Column 2>
PandemicResponseBox - Plate B

>  <Column 3>
F09

>  <Column 4>
MMV1582382

>  <Column 5>
10 mM

>  <Column 6>
ANTIBACTERIALS

>  <Column 7>


>  <Column 8>
None

>  <Column 9>
Panipenem

>  <Column 10>
S(C2=C(N1C(=O)[C@H]([C@H]1C2)[C@H](O)C)C(=O)O)[C@@H]3CN(C(=N)C)CC3

>  <Column 11>
CHEMBL339323

>  <Column 12>


>  <Column 13>
339.4

>  <Column 14>
C15 H21 N3 O4 S

>  <Tox-Glu>
ATCTOX

>  <Column 15>


>  <Column 16>
108 

>  <Column 17>
109 

>  <Column 18>
108 

>  <Column 19>


>  <Tox-Gal>
CTOXGAL

>  <Column 20>


>  <Column 21>
105 

>  <Column 22>
95 

>  <Column 23>
104 

>  <Column 24>


>  <Column 25>


>  <PAMPA>
PAMPA

>  <Column 26>
undetected

>  <Column 27>
low sensitivity

>  <Column 28>


>  <Mouse>
ATMETMOU

>  <Column 29>


>  <Column 30>
Not determined; Low sensitivity

$$$$
Compound 144
Actelion Java MolfileCreator 2.0

  0  0  0  0  0  0              0 V3000
M  V30 BEGIN CTAB
M  V30 COUNTS 8 8 0 0 0
M  V30 BEGIN ATOM
M  V30 1 P 0.866 0.0 0.0 0
M  V30 2 O 1.366 -0.866 0.0 0
M  V30 3 O 1.732 0.4999 0.0 0
M  V30 4 O 0.366 0.866 0.0 0
M  V30 5 C 0.0 -0.5 0.0 0 CFG=1
M  V30 6 O -1.0 -0.4999 0.0 0
M  V30 7 C -0.5 -1.366 0.0 0 CFG=1
M  V30 8 C -0.5 -2.366 0.0 0
M  V30 END ATOM
M  V30 BEGIN BOND
M  V30 1 2 1 2
M  V30 2 1 1 3
M  V30 3 1 1 4
M  V30 4 1 5 1 CFG=3
M  V30 5 1 5 6
M  V30 6 1 7 5
M  V30 7 1 7 8 CFG=3
M  V30 8 1 6 7
M  V30 END BOND
M  V30 BEGIN COLLECTION
M  V30 MDLV30/STEABS ATOMS=(2 5 7)
M  V30 END COLLECTION
M  V30 END CTAB
M  END
>  <Column 1>
143

>  <Column 2>
PandemicResponseBox - Plate B

>  <Column 3>
G09

>  <Column 4>
MMV002354

>  <Column 5>
10 mM

>  <Column 6>
ANTIBACTERIALS

>  <Column 7>
2

>  <Column 8>
Sodium

>  <Column 9>
Phosphomycin

>  <Column 10>
C[C@@H]1O[C@@H]1P(=O)(O)O

>  <Column 11>
CHEMBL1757

>  <Column 12>


>  <Column 13>
230.1

>  <Column 14>
C3H7O4P

>  <Tox-Glu>
ATCTOX

>  <Column 15>


>  <Column 16>
106 

>  <Column 17>
106 

>  <Column 18>
105 

>  <Column 19>


>  <Tox-Gal>
CTOXGAL

>  <Column 20>


>  <Column 21>
102 

>  <Column 22>
96 

>  <Column 23>
104 

>  <Column 24>


>  <Column 25>


>  <PAMPA>
PAMPA

>  <Column 26>
undetected

>  <Column 27>
low sensitivity

>  <Column 28>


>  <Mouse>
ATMETMOU

>  <Column 29>


>  <Column 30>
Not determined; Low sensitivity

$$$$
Compound 145
Actelion Java MolfileCreator 2.0

  0  0  0  0  0  0              0 V3000
M  V30 BEGIN CTAB
M  V30 COUNTS 30 32 0 0 0
M  V30 BEGIN ATOM
M  V30 1 S 6.9282 -0.5 0.0 0
M  V30 2 C 6.0621 0.0 0.0 0
M  V30 3 C 5.1961 -0.5 0.0 0
M  V30 4 C 4.3301 0.0 0.0 0 CFG=1
M  V30 5 N 4.3301 0.9999 0.0 0
M  V30 6 C 3.4641 -0.5 0.0 0
M  V30 7 C 5.1961 1.4999 0.0 0
M  V30 8 O 3.4641 -1.5 0.0 0
M  V30 9 N 2.598 0.0 0.0 0
M  V30 10 O 6.0621 0.9999 0.0 0
M  V30 11 C 5.1961 2.4999 0.0 0
M  V30 12 C 1.732 -0.5 0.0 0 CFG=1
M  V30 13 N 6.0051 3.0877 0.0 0
M  V30 14 C 4.3871 3.0877 0.0 0
M  V30 15 C 1.732 -1.5 0.0 0
M  V30 16 C 0.866 0.0 0.0 0
M  V30 17 C 5.6961 4.0388 0.0 0
M  V30 18 C 4.6961 4.0388 0.0 0
M  V30 19 O 0.866 -2.0 0.0 0
M  V30 20 O 2.598 -1.9999 0.0 0
M  V30 21 C 0.0 -0.5 0.0 0
M  V30 22 C 6.1961 4.9048 0.0 0
M  V30 23 C 4.1961 4.9048 0.0 0
M  V30 24 C -0.866 0.0 0.0 0
M  V30 25 C 0.0 -1.4999 0.0 0
M  V30 26 C 5.6961 5.7708 0.0 0
M  V30 27 C 4.6961 5.7708 0.0 0
M  V30 28 C -1.732 -0.4999 0.0 0
M  V30 29 C -0.866 -1.9999 0.0 0
M  V30 30 C -1.732 -1.4999 0.0 0
M  V30 END ATOM
M  V30 BEGIN BOND
M  V30 1 1 1 2
M  V30 2 1 2 3
M  V30 3 1 4 3
M  V30 4 1 4 5 CFG=3
M  V30 5 1 4 6
M  V30 6 1 5 7
M  V30 7 2 6 8
M  V30 8 1 6 9
M  V30 9 2 7 10
M  V30 10 1 7 11
M  V30 11 1 12 9 CFG=1
M  V30 12 1 11 13
M  V30 13 2 11 14
M  V30 14 1 12 15
M  V30 15 1 12 16
M  V30 16 1 13 17
M  V30 17 1 14 18
M  V30 18 2 15 19
M  V30 19 1 15 20
M  V30 20 1 16 21
M  V30 21 1 17 22
M  V30 22 1 18 23
M  V30 23 2 21 24
M  V30 24 1 21 25
M  V30 25 2 22 26
M  V30 26 2 23 27
M  V30 27 1 24 28
M  V30 28 2 25 29
M  V30 29 2 28 30
M  V30 30 2 17 18
M  V30 31 1 26 27
M  V30 32 1 29 30
M  V30 END BOND
M  V30 BEGIN COLLECTION
M  V30 MDLV30/STEABS ATOMS=(2 4 12)
M  V30 END COLLECTION
M  V30 END CTAB
M  END
>  <Column 1>
144

>  <Column 2>
PandemicResponseBox - Plate B

>  <Column 3>
H09

>  <Column 4>
MMV1581557

>  <Column 5>
10 mM

>  <Column 6>
ANTIBACTERIALS

>  <Column 7>


>  <Column 8>
None

>  <Column 9>


>  <Column 10>
OC(=O)[C@@H](Cc1ccccc1)NC(=O)[C@@H](CCS)NC(=O)c2cc3ccccc3[nH]2

>  <Column 11>
CHEMBL387290

>  <Column 12>


>  <Column 13>
425.5

>  <Column 14>
C22 H23 N3 O4 S

>  <Tox-Glu>
ATCTOX

>  <Column 15>


>  <Column 16>
112 

>  <Column 17>
118 

>  <Column 18>
113 

>  <Column 19>


>  <Tox-Gal>
CTOXGAL

>  <Column 20>


>  <Column 21>
106 

>  <Column 22>
104 

>  <Column 23>
111 

>  <Column 24>


>  <Column 25>


>  <PAMPA>
PAMPA

>  <Column 26>
undetected

>  <Column 27>
low sensitivity

>  <Column 28>


>  <Mouse>
ATMETMOU

>  <Column 29>


>  <Column 30>
Not determined; Large variations

$$$$
Compound 146
Actelion Java MolfileCreator 2.0

  0  0  0  0  0  0              0 V3000
M  V30 BEGIN CTAB
M  V30 COUNTS 26 29 0 0 0
M  V30 BEGIN ATOM
M  V30 1 F 1.299 5.9999 0.0 0
M  V30 2 C 1.299 4.5 0.0 0
M  V30 3 C 2.598 3.7499 0.0 0
M  V30 4 C 0.0 3.75 0.0 0
M  V30 5 C 2.598 2.2499 0.0 0
M  V30 6 C 0.0 2.25 0.0 0
M  V30 7 C 1.299 1.4999 0.0 0
M  V30 8 N 1.299 0.0 0.0 0
M  V30 9 C 0.0 -0.75 0.0 0
M  V30 10 N -1.299 0.0 0.0 0
M  V30 11 C 0.0 -2.2499 0.0 0
M  V30 12 C -2.598 -0.7499 0.0 0
M  V30 13 N -1.299 -2.9999 0.0 0
M  V30 14 C 1.299 -3.0 0.0 0
M  V30 15 C -2.598 -2.2499 0.0 0
M  V30 16 C -3.8971 0.0 0.0 0
M  V30 17 C 1.299 -4.5 0.0 0
M  V30 18 C 2.598 -2.25 0.0 0
M  V30 19 C -3.8971 -2.9999 0.0 0
M  V30 20 C -5.1961 -0.7499 0.0 0
M  V30 21 C 2.598 -5.25 0.0 0
M  V30 22 C 3.8971 -3.0 0.0 0
M  V30 23 N -3.8971 -4.4999 0.0 0
M  V30 24 C -5.1961 -2.2499 0.0 0
M  V30 25 N -6.4951 0.0 0.0 0
M  V30 26 C 3.8971 -4.5 0.0 0
M  V30 END ATOM
M  V30 BEGIN BOND
M  V30 1 1 1 2
M  V30 2 2 2 3
M  V30 3 1 2 4
M  V30 4 1 3 5
M  V30 5 2 4 6
M  V30 6 2 5 7
M  V30 7 1 7 8
M  V30 8 1 8 9
M  V30 9 2 9 10
M  V30 10 1 9 11
M  V30 11 1 10 12
M  V30 12 2 11 13
M  V30 13 1 11 14
M  V30 14 1 12 15
M  V30 15 2 12 16
M  V30 16 2 14 17
M  V30 17 1 14 18
M  V30 18 2 15 19
M  V30 19 1 16 20
M  V30 20 1 17 21
M  V30 21 2 18 22
M  V30 22 1 19 23
M  V30 23 1 19 24
M  V30 24 1 20 25
M  V30 25 2 21 26
M  V30 26 1 6 7
M  V30 27 1 13 15
M  V30 28 2 20 24
M  V30 29 1 22 26
M  V30 END BOND
M  V30 END CTAB
M  END
>  <Column 1>
145

>  <Column 2>
PandemicResponseBox - Plate B

>  <Column 3>
A10

>  <Column 4>
MMV1581554

>  <Column 5>
10 mM

>  <Column 6>
ANTIBACTERIALS

>  <Column 7>


>  <Column 8>
None

>  <Column 9>
NSC 731130

>  <Column 10>
Nc1cc(N)c2nc(c(Nc3ccc(F)cc3)nc2c1)c4ccccc4

>  <Column 11>
CHEMBL465891

>  <Column 12>


>  <Column 13>
345.4

>  <Column 14>
C20 H16 F N5

>  <Tox-Glu>
ATCTOX

>  <Column 15>


>  <Column 16>
94 

>  <Column 17>
8 

>  <Column 18>
1 

>  <Column 19>


>  <Tox-Gal>
CTOXGAL

>  <Column 20>


>  <Column 21>
92 

>  <Column 22>
6 

>  <Column 23>
1 

>  <Column 24>


>  <Column 25>


>  <PAMPA>
PAMPA

>  <Column 26>
72

>  <Column 27>


>  <Column 28>


>  <Mouse>
ATMETMOU

>  <Column 29>
169

>  <Column 30>


$$$$
Compound 147
Actelion Java MolfileCreator 2.0

  0  0  0  0  0  0              0 V3000
M  V30 BEGIN CTAB
M  V30 COUNTS 17 18 0 0 0
M  V30 BEGIN ATOM
M  V30 1 S 1.732 -0.5 0.0 0
M  V30 2 C 2.598 0.0 0.0 0
M  V30 3 C 0.866 0.0 0.0 0
M  V30 4 C 3.4641 -0.4999 0.0 0
M  V30 5 C 2.598 0.9999 0.0 0
M  V30 6 C 0.0 -0.5 0.0 0 CFG=1
M  V30 7 C 4.3301 0.0 0.0 0
M  V30 8 C 3.4641 1.5 0.0 0
M  V30 9 O -0.9135 -0.0932 0.0 0
M  V30 10 C -0.1045 -1.4945 0.0 0 CFG=1
M  V30 11 C 4.3301 1.0 0.0 0
M  V30 12 C -1.5826 -0.8364 0.0 0
M  V30 13 O 0.6386 -2.1636 0.0 0
M  V30 14 C -1.0826 -1.7024 0.0 0 CFG=2
M  V30 15 F 5.1961 1.5 0.0 0
M  V30 16 O -2.5771 -0.7318 0.0 0
M  V30 17 O -1.4894 -2.6159 0.0 0
M  V30 END ATOM
M  V30 BEGIN BOND
M  V30 1 1 1 2
M  V30 2 1 1 3
M  V30 3 2 2 4
M  V30 4 1 2 5
M  V30 5 1 6 3 CFG=3
M  V30 6 1 4 7
M  V30 7 2 5 8
M  V30 8 1 6 9
M  V30 9 1 10 6
M  V30 10 2 7 11
M  V30 11 1 9 12
M  V30 12 1 10 13 CFG=1
M  V30 13 1 14 10
M  V30 14 1 11 15
M  V30 15 1 12 16
M  V30 16 1 14 17 CFG=1
M  V30 17 1 8 11
M  V30 18 1 12 14
M  V30 END BOND
M  V30 BEGIN COLLECTION
M  V30 MDLV30/STEABS ATOMS=(3 6 10 14)
M  V30 END COLLECTION
M  V30 END CTAB
M  END
>  <Column 1>
146

>  <Column 2>
PandemicResponseBox - Plate B

>  <Column 3>
B10

>  <Column 4>
MMV1581550

>  <Column 5>
10 mM

>  <Column 6>
ANTIBACTERIALS

>  <Column 7>


>  <Column 8>
None

>  <Column 9>


>  <Column 10>
OC1O[C@H](CSc2ccc(F)cc2)[C@@H](O)[C@H]1O

>  <Column 11>
CHEMBL609180

>  <Column 12>


>  <Column 13>
260.3

>  <Column 14>
C11 H13 F O4 S

>  <Tox-Glu>
ATCTOX

>  <Column 15>


>  <Column 16>
102 

>  <Column 17>
102 

>  <Column 18>
98 

>  <Column 19>


>  <Tox-Gal>
CTOXGAL

>  <Column 20>


>  <Column 21>
102 

>  <Column 22>
97 

>  <Column 23>
102 

>  <Column 24>


>  <Column 25>


>  <PAMPA>
PAMPA

>  <Column 26>
undetected

>  <Column 27>
low sensitivity

>  <Column 28>


>  <Mouse>
ATMETMOU

>  <Column 29>
17

>  <Column 30>
Low sensitivity

$$$$
Compound 148
Actelion Java MolfileCreator 2.0

  0  0  0  0  0  0              0 V3000
M  V30 BEGIN CTAB
M  V30 COUNTS 19 21 0 0 0
M  V30 BEGIN ATOM
M  V30 1 O 4.3301 0.0 0.0 0
M  V30 2 C 3.4641 -0.5 0.0 0
M  V30 3 N 2.598 0.0 0.0 0
M  V30 4 N 3.4641 -1.4999 0.0 0
M  V30 5 C 1.732 -0.5 0.0 0
M  V30 6 C 2.598 -2.0 0.0 0
M  V30 7 N 0.866 0.0 0.0 0
M  V30 8 C 1.732 -1.5 0.0 0
M  V30 9 O 2.598 -3.0 0.0 0
M  V30 10 C 0.0 -0.5 0.0 0
M  V30 11 C -0.866 0.0 0.0 0
M  V30 12 C 0.0 -1.4999 0.0 0
M  V30 13 C -1.732 -0.4999 0.0 0
M  V30 14 C -0.866 -1.9999 0.0 0
M  V30 15 C -1.732 -1.4999 0.0 0
M  V30 16 C -2.598 0.0 0.0 0
M  V30 17 C -2.598 -1.9999 0.0 0
M  V30 18 C -3.4641 -0.4999 0.0 0
M  V30 19 C -3.4641 -1.4999 0.0 0
M  V30 END ATOM
M  V30 BEGIN BOND
M  V30 1 2 1 2
M  V30 2 1 2 3
M  V30 3 1 2 4
M  V30 4 1 3 5
M  V30 5 1 4 6
M  V30 6 1 5 7
M  V30 7 2 5 8
M  V30 8 2 6 9
M  V30 9 1 7 10
M  V30 10 2 10 11
M  V30 11 1 10 12
M  V30 12 1 11 13
M  V30 13 2 12 14
M  V30 14 1 13 15
M  V30 15 2 13 16
M  V30 16 2 15 17
M  V30 17 1 16 18
M  V30 18 1 17 19
M  V30 19 1 6 8
M  V30 20 1 14 15
M  V30 21 2 18 19
M  V30 END BOND
M  V30 END CTAB
M  END
>  <Column 1>
147

>  <Column 2>
PandemicResponseBox - Plate B

>  <Column 3>
C10

>  <Column 4>
MMV1581546

>  <Column 5>
10 mM

>  <Column 6>
ANTIBACTERIALS

>  <Column 7>


>  <Column 8>
None

>  <Column 9>
NSC 212338

>  <Column 10>
O=C1NC(=O)C=C(Nc2ccc3ccccc3c2)N1

>  <Column 11>
CHEMBL124937

>  <Column 12>


>  <Column 13>
253.3

>  <Column 14>
C14 H11 N3 O2

>  <Tox-Glu>
ATCTOX

>  <Column 15>


>  <Column 16>
104 

>  <Column 17>
110 

>  <Column 18>
91 

>  <Column 19>


>  <Tox-Gal>
CTOXGAL

>  <Column 20>


>  <Column 21>
105 

>  <Column 22>
101 

>  <Column 23>
100 

>  <Column 24>


>  <Column 25>


>  <PAMPA>
PAMPA

>  <Column 26>
undetected

>  <Column 27>
low sensitivity

>  <Column 28>


>  <Mouse>
ATMETMOU

>  <Column 29>
95

>  <Column 30>
Large variations

$$$$
Compound 149
Actelion Java MolfileCreator 2.0

  0  0  0  0  0  0              0 V3000
M  V30 BEGIN CTAB
M  V30 COUNTS 28 30 0 0 0
M  V30 BEGIN ATOM
M  V30 1 O 1.299 0.0 0.0 0
M  V30 2 C 2.598 -0.75 0.0 0
M  V30 3 C 0.0 -0.75 0.0 0
M  V30 4 C 2.598 -2.25 0.0 0
M  V30 5 C 3.8971 0.0 0.0 0
M  V30 6 C 3.8971 -3.0 0.0 0
M  V30 7 C 5.1961 -0.75 0.0 0
M  V30 8 C 3.8971 -4.5 0.0 0
M  V30 9 C 5.1961 -2.25 0.0 0
M  V30 10 C 6.4951 0.0 0.0 0 CFG=1
M  V30 11 C 2.598 -5.25 0.0 0
M  V30 12 C 5.1961 -5.25 0.0 0
M  V30 13 C 7.7942 -0.75 0.0 0
M  V30 14 C 6.4951 1.4999 0.0 0
M  V30 15 C 2.598 -6.75 0.0 0
M  V30 16 C 5.1961 -6.75 0.0 0
M  V30 17 C 9.0932 -1.5 0.0 0
M  V30 18 N 3.8971 -7.5 0.0 0
M  V30 19 C 10.3923 -2.25 0.0 0
M  V30 20 C 10.3923 -3.75 0.0 0
M  V30 21 C 11.6913 -1.5 0.0 0
M  V30 22 N 11.6913 -4.5 0.0 0
M  V30 23 N 9.0932 -4.5 0.0 0
M  V30 24 N 12.9903 -2.25 0.0 0
M  V30 25 C 11.6913 0.0 0.0 0
M  V30 26 C 12.9903 -3.75 0.0 0
M  V30 27 C 10.3923 0.7499 0.0 0
M  V30 28 N 14.2894 -4.5 0.0 0
M  V30 END ATOM
M  V30 BEGIN BOND
M  V30 1 1 1 2
M  V30 2 1 1 3
M  V30 3 2 2 4
M  V30 4 1 2 5
M  V30 5 1 4 6
M  V30 6 2 5 7
M  V30 7 1 6 8
M  V30 8 2 6 9
M  V30 9 1 10 7
M  V30 10 2 8 11
M  V30 11 1 8 12
M  V30 12 1 10 13
M  V30 13 1 10 14 CFG=3
M  V30 14 1 11 15
M  V30 15 2 12 16
M  V30 16 3 13 17
M  V30 17 2 15 18
M  V30 18 1 17 19
M  V30 19 2 19 20
M  V30 20 1 19 21
M  V30 21 1 20 22
M  V30 22 1 20 23
M  V30 23 2 21 24
M  V30 24 1 21 25
M  V30 25 2 22 26
M  V30 26 1 25 27
M  V30 27 1 26 28
M  V30 28 1 7 9
M  V30 29 1 16 18
M  V30 30 1 24 26
M  V30 END BOND
M  V30 BEGIN COLLECTION
M  V30 MDLV30/STERAC1 ATOMS=(1 10)
M  V30 END COLLECTION
M  V30 END CTAB
M  END
>  <Column 1>
148

>  <Column 2>
PandemicResponseBox - Plate B

>  <Column 3>
D10

>  <Column 4>
MMV1580844

>  <Column 5>
10 mM

>  <Column 6>
ANTIBACTERIALS

>  <Column 7>


>  <Column 8>
None

>  <Column 9>


>  <Column 10>
CCc1nc(N)nc(N)c1C#CC(C)c2cc(OC)cc(c2)c3ccncc3

>  <Column 11>
CHEMBL2335419

>  <Column 12>


>  <Column 13>
373.5

>  <Column 14>
C22 H23 N5 O

>  <Tox-Glu>
ATCTOX

>  <Column 15>


>  <Column 16>
59 

>  <Column 17>
28 

>  <Column 18>
1 

>  <Column 19>


>  <Tox-Gal>
CTOXGAL

>  <Column 20>


>  <Column 21>
83 

>  <Column 22>
0 

>  <Column 23>
1 

>  <Column 24>


>  <Column 25>


>  <PAMPA>
PAMPA

>  <Column 26>
394

>  <Column 27>


>  <Column 28>


>  <Mouse>
ATMETMOU

>  <Column 29>
159

>  <Column 30>


$$$$
Compound 150
Actelion Java MolfileCreator 2.0

  0  0  0  0  0  0              0 V3000
M  V30 BEGIN CTAB
M  V30 COUNTS 29 32 0 0 0
M  V30 BEGIN ATOM
M  V30 1 O 11.6469 -5.923 0.0 0
M  V30 2 C 10.8969 -4.624 0.0 0
M  V30 3 N 11.507 -3.2537 0.0 0
M  V30 4 C 9.4051 -4.4672 0.0 0
M  V30 5 C 10.3923 -2.25 0.0 0
M  V30 6 C 9.0932 -3.0 0.0 0
M  V30 7 C 7.9785 -4.9307 0.0 0
M  V30 8 C 9.0933 -5.9344 0.0 0
M  V30 9 N 10.3923 -0.75 0.0 0
M  V30 10 C 7.7942 -2.25 0.0 0
M  V30 11 C 9.0932 0.0 0.0 0
M  V30 12 C 7.7942 -0.75 0.0 0
M  V30 13 C 6.4951 0.0 0.0 0
M  V30 14 C 5.1961 -0.75 0.0 0
M  V30 15 C 3.8971 0.0 0.0 0
M  V30 16 O 3.8971 1.5 0.0 0
M  V30 17 N 2.598 -0.75 0.0 0
M  V30 18 C 1.299 0.0 0.0 0
M  V30 19 C 2.598 -2.25 0.0 0
M  V30 20 C 0.0 -0.75 0.0 0
M  V30 21 O -1.3703 -0.1398 0.0 0
M  V30 22 C -0.1567 -2.2417 0.0 0
M  V30 23 C -2.374 -1.2546 0.0 0
M  V30 24 C -1.624 -2.5536 0.0 0
M  V30 25 C 0.9579 -3.2454 0.0 0
M  V30 26 C -3.874 -1.2546 0.0 0
M  V30 27 C -2.374 -3.8526 0.0 0
M  V30 28 C -4.624 -2.5536 0.0 0
M  V30 29 C -3.874 -3.8526 0.0 0
M  V30 END ATOM
M  V30 BEGIN BOND
M  V30 1 2 1 2
M  V30 2 1 2 3
M  V30 3 1 2 4
M  V30 4 1 3 5
M  V30 5 1 4 6
M  V30 6 1 4 7
M  V30 7 1 4 8
M  V30 8 1 5 9
M  V30 9 1 6 10
M  V30 10 2 9 11
M  V30 11 2 10 12
M  V30 12 1 12 13
M  V30 13 2 13 14
M  V30 14 1 14 15
M  V30 15 2 15 16
M  V30 16 1 15 17
M  V30 17 1 17 18
M  V30 18 1 17 19
M  V30 19 1 18 20
M  V30 20 1 20 21
M  V30 21 2 20 22
M  V30 22 1 21 23
M  V30 23 1 22 24
M  V30 24 1 22 25
M  V30 25 1 23 26
M  V30 26 1 24 27
M  V30 27 2 26 28
M  V30 28 2 27 29
M  V30 29 2 5 6
M  V30 30 1 11 12
M  V30 31 2 23 24
M  V30 32 1 28 29
M  V30 END BOND
M  V30 END CTAB
M  END
>  <Column 1>
149

>  <Column 2>
PandemicResponseBox - Plate B

>  <Column 3>
E10

>  <Column 4>
MMV1579788

>  <Column 5>
10 mM

>  <Column 6>
ANTIBACTERIALS

>  <Column 7>


>  <Column 8>
None

>  <Column 9>


>  <Column 10>
CN(Cc1oc2ccccc2c1C)C(=O)\C=C\c3cnc4NC(=O)C(C)(C)c4c3

>  <Column 11>
NA

>  <Column 12>
US�9115149,IN 2011CH03225

>  <Column 13>
389.4

>  <Column 14>
C23 H23 N3 O3

>  <Tox-Glu>
ATCTOX

>  <Column 15>


>  <Column 16>
104 

>  <Column 17>
107 

>  <Column 18>
95 

>  <Column 19>


>  <Tox-Gal>
CTOXGAL

>  <Column 20>


>  <Column 21>
103 

>  <Column 22>
98 

>  <Column 23>
103 

>  <Column 24>


>  <Column 25>


>  <PAMPA>
PAMPA

>  <Column 26>
405

>  <Column 27>


>  <Column 28>


>  <Mouse>
ATMETMOU

>  <Column 29>
81

>  <Column 30>


$$$$
Compound 151
Actelion Java MolfileCreator 2.0

  0  0  0  0  0  0              0 V3000
M  V30 BEGIN CTAB
M  V30 COUNTS 26 29 0 0 0
M  V30 BEGIN ATOM
M  V30 1 F 0.0 2.25 0.0 0
M  V30 2 C 1.299 1.5 0.0 0
M  V30 3 C 1.299 0.0 0.0 0
M  V30 4 C 2.598 2.2499 0.0 0
M  V30 5 N 0.0 -0.75 0.0 0
M  V30 6 C 2.598 -0.75 0.0 0
M  V30 7 C 3.8971 1.4999 0.0 0
M  V30 8 C -1.3703 -0.1398 0.0 0
M  V30 9 C -0.1567 -2.2417 0.0 0
M  V30 10 C 3.8971 0.0 0.0 0
M  V30 11 O 5.1961 2.2499 0.0 0
M  V30 12 O -1.6821 1.3273 0.0 0
M  V30 13 C -2.374 -1.2546 0.0 0
M  V30 14 O 0.9579 -3.2454 0.0 0
M  V30 15 C -1.624 -2.5536 0.0 0
M  V30 16 N 5.1961 -0.75 0.0 0
M  V30 17 C 6.4951 1.4999 0.0 0
M  V30 18 C -3.874 -1.2546 0.0 0
M  V30 19 C -2.374 -3.8526 0.0 0
M  V30 20 C 6.4951 0.0 0.0 0
M  V30 21 C 5.1961 -2.25 0.0 0
M  V30 22 C -4.624 -2.5536 0.0 0
M  V30 23 C -3.874 -3.8526 0.0 0
M  V30 24 O 7.7942 -0.75 0.0 0
M  V30 25 C 6.4951 -3.0 0.0 0
M  V30 26 N 7.7942 -3.75 0.0 0
M  V30 END ATOM
M  V30 BEGIN BOND
M  V30 1 1 1 2
M  V30 2 2 2 3
M  V30 3 1 2 4
M  V30 4 1 3 5
M  V30 5 1 3 6
M  V30 6 2 4 7
M  V30 7 1 5 8
M  V30 8 1 5 9
M  V30 9 2 6 10
M  V30 10 1 7 11
M  V30 11 2 8 12
M  V30 12 1 8 13
M  V30 13 2 9 14
M  V30 14 1 9 15
M  V30 15 1 10 16
M  V30 16 1 11 17
M  V30 17 1 13 18
M  V30 18 1 15 19
M  V30 19 1 16 20
M  V30 20 1 16 21
M  V30 21 2 18 22
M  V30 22 2 19 23
M  V30 23 2 20 24
M  V30 24 1 21 25
M  V30 25 3 25 26
M  V30 26 1 7 10
M  V30 27 2 13 15
M  V30 28 1 17 20
M  V30 29 1 22 23
M  V30 END BOND
M  V30 END CTAB
M  END
>  <Column 1>
150

>  <Column 2>
PandemicResponseBox - Plate B

>  <Column 3>
F10

>  <Column 4>
MMV1579785

>  <Column 5>
10 mM

>  <Column 6>
ANTIBACTERIALS

>  <Column 7>


>  <Column 8>
None

>  <Column 9>


>  <Column 10>
Fc1cc2OCC(=O)N(CC#N)c2cc1N3C(=O)c4ccccc4C3=O

>  <Column 11>
CHEMBL573126

>  <Column 12>


>  <Column 13>
351.3

>  <Column 14>
C18 H10 F N3 O4

>  <Tox-Glu>
ATCTOX

>  <Column 15>


>  <Column 16>
103 

>  <Column 17>
107 

>  <Column 18>
106 

>  <Column 19>


>  <Tox-Gal>
CTOXGAL

>  <Column 20>


>  <Column 21>
100 

>  <Column 22>
102 

>  <Column 23>
106 

>  <Column 24>


>  <Column 25>


>  <PAMPA>
PAMPA

>  <Column 26>
undetected

>  <Column 27>
low sensitivity

>  <Column 28>


>  <Mouse>
ATMETMOU

>  <Column 29>


>  <Column 30>
Not determined; Low sensitivity

$$$$
Compound 152
Actelion Java MolfileCreator 2.0

  0  0  0  0  0  0              0 V3000
M  V30 BEGIN CTAB
M  V30 COUNTS 18 19 0 0 0
M  V30 BEGIN ATOM
M  V30 1 O 5.1961 -0.5 0.0 0
M  V30 2 C 4.3301 0.0 0.0 0
M  V30 3 N 3.4641 -0.5 0.0 0
M  V30 4 C 4.3301 1.0 0.0 0
M  V30 5 C 2.598 0.0 0.0 0
M  V30 6 C 5.1961 1.4999 0.0 0
M  V30 7 C 3.4641 1.5 0.0 0
M  V30 8 C 1.732 -0.5 0.0 0
M  V30 9 N 6.0621 0.9999 0.0 0
M  V30 10 C 5.1961 2.4999 0.0 0
M  V30 11 C 3.4641 2.5 0.0 0
M  V30 12 N 0.866 0.0 0.0 0
M  V30 13 C 6.9282 1.4999 0.0 0
M  V30 14 C 6.0621 3.0 0.0 0
M  V30 15 C 4.3301 2.9999 0.0 0
M  V30 16 C 0.866 1.0 0.0 0
M  V30 17 C 0.0 -0.5 0.0 0
M  V30 18 C 6.9282 2.4999 0.0 0
M  V30 END ATOM
M  V30 BEGIN BOND
M  V30 1 2 1 2
M  V30 2 1 2 3
M  V30 3 1 2 4
M  V30 4 1 3 5
M  V30 5 1 4 6
M  V30 6 2 4 7
M  V30 7 1 5 8
M  V30 8 2 6 9
M  V30 9 1 6 10
M  V30 10 1 7 11
M  V30 11 1 8 12
M  V30 12 1 9 13
M  V30 13 2 10 14
M  V30 14 1 10 15
M  V30 15 1 12 16
M  V30 16 1 12 17
M  V30 17 2 13 18
M  V30 18 2 11 15
M  V30 19 1 14 18
M  V30 END BOND
M  V30 END CTAB
M  END
>  <Column 1>
151

>  <Column 2>
PandemicResponseBox - Plate B

>  <Column 3>
G10

>  <Column 4>
MMV811071

>  <Column 5>
10 mM

>  <Column 6>
ANTIBACTERIALS

>  <Column 7>


>  <Column 8>
None

>  <Column 9>


>  <Column 10>
CN(C)CCNC(=O)c1cccc2cccnc12

>  <Column 11>
CHEMBL9575

>  <Column 12>


>  <Column 13>
243.3

>  <Column 14>
C14 H17 N3 O

>  <Tox-Glu>
ATCTOX

>  <Column 15>


>  <Column 16>
82 

>  <Column 17>
79 

>  <Column 18>
85 

>  <Column 19>


>  <Tox-Gal>
CTOXGAL

>  <Column 20>


>  <Column 21>
86 

>  <Column 22>
69 

>  <Column 23>
82 

>  <Column 24>


>  <Column 25>


>  <PAMPA>
PAMPA

>  <Column 26>
229

>  <Column 27>


>  <Column 28>


>  <Mouse>
ATMETMOU

>  <Column 29>
41

>  <Column 30>


$$$$
Compound 153
Actelion Java MolfileCreator 2.0

  0  0  0  0  0  0              0 V3000
M  V30 BEGIN CTAB
M  V30 COUNTS 18 19 0 0 0
M  V30 BEGIN ATOM
M  V30 1 Cl 8.6602 -3.5 0.0 0
M  V30 2 C 7.7942 -3.0 0.0 0
M  V30 3 C 7.7942 -2.0 0.0 0
M  V30 4 C 6.9282 -3.4999 0.0 0
M  V30 5 C 6.9282 -1.4999 0.0 0
M  V30 6 C 6.0621 -2.9999 0.0 0
M  V30 7 C 6.0621 -2.0 0.0 0
M  V30 8 N 5.1961 -1.4999 0.0 0
M  V30 9 C 5.1961 -0.5 0.0 0
M  V30 10 C 4.3301 -1.9999 0.0 0
M  V30 11 C 4.3301 0.0 0.0 0
M  V30 12 C 3.4641 -1.5 0.0 0
M  V30 13 N 3.4641 -0.5 0.0 0
M  V30 14 C 2.598 0.0 0.0 0
M  V30 15 O 2.598 1.0 0.0 0
M  V30 16 O 1.732 -0.5 0.0 0
M  V30 17 C 0.866 0.0 0.0 0
M  V30 18 C 0.0 -0.5 0.0 0
M  V30 END ATOM
M  V30 BEGIN BOND
M  V30 1 1 1 2
M  V30 2 2 2 3
M  V30 3 1 2 4
M  V30 4 1 3 5
M  V30 5 2 4 6
M  V30 6 2 5 7
M  V30 7 1 7 8
M  V30 8 1 8 9
M  V30 9 1 8 10
M  V30 10 1 9 11
M  V30 11 1 10 12
M  V30 12 1 11 13
M  V30 13 1 13 14
M  V30 14 2 14 15
M  V30 15 1 14 16
M  V30 16 1 16 17
M  V30 17 1 17 18
M  V30 18 1 6 7
M  V30 19 1 12 13
M  V30 END BOND
M  V30 END CTAB
M  END
>  <Column 1>
152

>  <Column 2>
PandemicResponseBox - Plate B

>  <Column 3>
H10

>  <Column 4>
MMV1578898

>  <Column 5>
10 mM

>  <Column 6>
ANTIBACTERIALS

>  <Column 7>


>  <Column 8>
None

>  <Column 9>
NSC 152742

>  <Column 10>
CCOC(=O)N1CCN(CC1)c2ccc(Cl)cc2

>  <Column 11>
CHEMBL1518150

>  <Column 12>


>  <Column 13>
268.7

>  <Column 14>
C13 H17 Cl N2 O2

>  <Tox-Glu>
ATCTOX

>  <Column 15>


>  <Column 16>
90 

>  <Column 17>
92 

>  <Column 18>
82 

>  <Column 19>


>  <Tox-Gal>
CTOXGAL

>  <Column 20>


>  <Column 21>
88 

>  <Column 22>
70 

>  <Column 23>
47 

>  <Column 24>


>  <Column 25>


>  <PAMPA>
PAMPA

>  <Column 26>
377

>  <Column 27>


>  <Column 28>


>  <Mouse>
ATMETMOU

>  <Column 29>
749

>  <Column 30>


$$$$
Compound 154
Actelion Java MolfileCreator 2.0

  0  0  0  0  0  0              0 V3000
M  V30 BEGIN CTAB
M  V30 COUNTS 29 32 0 0 0
M  V30 BEGIN ATOM
M  V30 1 S 3.8971 0.0 0.0 0
M  V30 2 C 5.1961 -0.75 0.0 0
M  V30 3 C 2.598 -0.75 0.0 0
M  V30 4 N 5.1961 -2.25 0.0 0
M  V30 5 C 6.4951 0.0 0.0 0
M  V30 6 C 1.299 0.0 0.0 0
M  V30 7 C 6.4951 -3.0 0.0 0
M  V30 8 C 6.4951 1.5 0.0 0
M  V30 9 C 7.7942 -0.75 0.0 0
M  V30 10 C 0.0 -0.75 0.0 0
M  V30 11 N 6.4951 -4.5 0.0 0
M  V30 12 C 7.7942 -2.25 0.0 0
M  V30 13 N 6.4951 3.0 0.0 0
M  V30 14 C 9.0932 0.0 0.0 0
M  V30 15 C -1.299 0.0 0.0 0
M  V30 16 C 0.0 -2.25 0.0 0
M  V30 17 C 5.1961 -5.25 0.0 0
M  V30 18 C 7.7942 -5.25 0.0 0
M  V30 19 C 9.0932 -3.0 0.0 0
M  V30 20 C 10.3923 -0.75 0.0 0
M  V30 21 C -2.598 -0.75 0.0 0
M  V30 22 C -1.299 -3.0 0.0 0
M  V30 23 C 5.1961 -6.75 0.0 0
M  V30 24 C 7.7942 -6.75 0.0 0
M  V30 25 O 10.3923 -2.25 0.0 0
M  V30 26 C 11.8922 -0.75 0.0 0
M  V30 27 C 11.1422 0.549 0.0 0
M  V30 28 C -2.598 -2.25 0.0 0
M  V30 29 O 6.4951 -7.5 0.0 0
M  V30 END ATOM
M  V30 BEGIN BOND
M  V30 1 1 1 2
M  V30 2 1 1 3
M  V30 3 2 2 4
M  V30 4 1 2 5
M  V30 5 1 3 6
M  V30 6 1 4 7
M  V30 7 1 5 8
M  V30 8 2 5 9
M  V30 9 1 6 10
M  V30 10 1 7 11
M  V30 11 2 7 12
M  V30 12 3 8 13
M  V30 13 1 9 14
M  V30 14 2 10 15
M  V30 15 1 10 16
M  V30 16 1 11 17
M  V30 17 1 11 18
M  V30 18 1 12 19
M  V30 19 1 14 20
M  V30 20 1 15 21
M  V30 21 2 16 22
M  V30 22 1 17 23
M  V30 23 1 18 24
M  V30 24 1 19 25
M  V30 25 1 20 26
M  V30 26 1 20 27
M  V30 27 2 21 28
M  V30 28 1 23 29
M  V30 29 1 9 12
M  V30 30 1 20 25
M  V30 31 1 22 28
M  V30 32 1 24 29
M  V30 END BOND
M  V30 END CTAB
M  END
>  <Column 1>
153

>  <Column 2>
PandemicResponseBox - Plate B

>  <Column 3>
A11

>  <Column 4>
MMV1549626

>  <Column 5>
10 mM

>  <Column 6>
ANTIBACTERIALS

>  <Column 7>


>  <Column 8>
None

>  <Column 9>
MBX-2319

>  <Column 10>
CC1(C)Cc2c(CO1)c(nc(SCCc3ccccc3)c2C#N)N4CCOCC4

>  <Column 11>
CHEMBL3401827

>  <Column 12>


>  <Column 13>
409.5

>  <Column 14>
C23 H27 N3 O2 S

>  <Tox-Glu>
ATCTOX

>  <Column 15>


>  <Column 16>
83 

>  <Column 17>
94 

>  <Column 18>
94 

>  <Column 19>


>  <Tox-Gal>
CTOXGAL

>  <Column 20>


>  <Column 21>
87 

>  <Column 22>
80 

>  <Column 23>
91 

>  <Column 24>


>  <Column 25>


>  <PAMPA>
PAMPA

>  <Column 26>
140

>  <Column 27>


>  <Column 28>


>  <Mouse>
ATMETMOU

>  <Column 29>
347

>  <Column 30>


$$$$
Compound 155
Actelion Java MolfileCreator 2.0

  0  0  0  0  0  0              0 V3000
M  V30 BEGIN CTAB
M  V30 COUNTS 28 30 0 0 0
M  V30 BEGIN ATOM
M  V30 1 S -2.5095 0.6988 0.0 0
M  V30 2 C -1.4488 -0.3617 0.0 0 CFG=1
M  V30 3 C -3.9584 0.3106 0.0 0
M  V30 4 N -1.8371 -1.8106 0.0 0
M  V30 5 C 0.0 -0.75 0.0 0 CFG=2
M  V30 6 C -4.3466 -1.1382 0.0 0
M  V30 7 C -3.286 -2.1988 0.0 0
M  V30 8 C -0.3882 -2.1988 0.0 0
M  V30 9 O 1.19 -1.6631 0.0 0
M  V30 10 N 1.299 0.0 0.0 0
M  V30 11 C -5.7955 -1.5264 0.0 0
M  V30 12 C -3.6742 -3.6477 0.0 0
M  V30 13 O 0.3617 -3.4979 0.0 0
M  V30 14 C 2.5758 -1.0891 0.0 0
M  V30 15 C 1.299 1.4999 0.0 0
M  V30 16 O -6.1837 -2.9753 0.0 0
M  V30 17 O -5.1231 -4.036 0.0 0
M  V30 18 O -2.6135 -4.7084 0.0 0
M  V30 19 O 0.0 2.25 0.0 0
M  V30 20 C 2.598 2.2499 0.0 0
M  V30 21 C -7.6326 -3.3635 0.0 0
M  V30 22 C 2.598 3.75 0.0 0
M  V30 23 O -8.6933 -2.3029 0.0 0
M  V30 24 N -8.0209 -4.8124 0.0 0
M  V30 25 S 1.3845 4.6316 0.0 0
M  V30 26 C 3.8116 4.6316 0.0 0
M  V30 27 C 1.848 6.0582 0.0 0
M  V30 28 C 3.348 6.0582 0.0 0
M  V30 END ATOM
M  V30 BEGIN BOND
M  V30 1 1 2 1 CFG=3
M  V30 2 1 1 3
M  V30 3 1 2 4
M  V30 4 1 5 2
M  V30 5 1 3 6
M  V30 6 1 4 7
M  V30 7 1 4 8
M  V30 8 1 5 9 CFG=1
M  V30 9 1 5 10
M  V30 10 1 6 11
M  V30 11 1 7 12
M  V30 12 2 8 13
M  V30 13 1 9 14
M  V30 14 1 10 15
M  V30 15 1 11 16
M  V30 16 2 12 17
M  V30 17 1 12 18
M  V30 18 2 15 19
M  V30 19 1 15 20
M  V30 20 1 16 21
M  V30 21 1 20 22
M  V30 22 2 21 23
M  V30 23 1 21 24
M  V30 24 1 22 25
M  V30 25 2 22 26
M  V30 26 1 25 27
M  V30 27 1 26 28
M  V30 28 1 5 8
M  V30 29 2 6 7
M  V30 30 2 27 28
M  V30 END BOND
M  V30 BEGIN COLLECTION
M  V30 MDLV30/STEABS ATOMS=(2 2 5)
M  V30 END COLLECTION
M  V30 END CTAB
M  END
>  <Column 1>
154

>  <Column 2>
PandemicResponseBox - Plate B

>  <Column 3>
B11

>  <Column 4>
MMV1578559

>  <Column 5>
10 mM

>  <Column 6>
ANTIBACTERIALS

>  <Column 7>


>  <Column 8>
None

>  <Column 9>
Cefoxitin

>  <Column 10>
CO[C@]1(NC(=O)Cc2cccs2)[C@H]3SCC(=C(N3C1=O)C(=O)O)COC(=O)N

>  <Column 11>
CHEMBL996

>  <Column 12>


>  <Column 13>
427.5

>  <Column 14>
C16 H17 N3 O7 S2

>  <Tox-Glu>
ATCTOX

>  <Column 15>


>  <Column 16>
92 

>  <Column 17>
90 

>  <Column 18>
99 

>  <Column 19>


>  <Tox-Gal>
CTOXGAL

>  <Column 20>


>  <Column 21>
97 

>  <Column 22>
85 

>  <Column 23>
93 

>  <Column 24>


>  <Column 25>


>  <PAMPA>
PAMPA

>  <Column 26>
undetected

>  <Column 27>
low sensitivity

>  <Column 28>


>  <Mouse>
ATMETMOU

>  <Column 29>
-3

>  <Column 30>
Low sensitivity

$$$$
Compound 156
Actelion Java MolfileCreator 2.0

  0  0  0  0  0  0              0 V3000
M  V30 BEGIN CTAB
M  V30 COUNTS 27 29 0 0 0
M  V30 BEGIN ATOM
M  V30 1 S 7.7942 2.25 0.0 0
M  V30 2 O 8.5442 3.549 0.0 0
M  V30 3 O 7.0442 3.549 0.0 0
M  V30 4 N 9.0932 1.5 0.0 0
M  V30 5 C 6.4952 1.5 0.0 0
M  V30 6 C 9.0932 0.0 0.0 0
M  V30 7 C 10.3923 2.25 0.0 0
M  V30 8 C 5.1961 2.25 0.0 0
M  V30 9 C 6.4952 0.0 0.0 0
M  V30 10 C 10.3923 -0.75 0.0 0
M  V30 11 C 11.6913 1.5 0.0 0
M  V30 12 C 3.8971 1.5 0.0 0
M  V30 13 C 5.1961 -0.75 0.0 0
M  V30 14 C 11.6913 0.0 0.0 0
M  V30 15 C 3.8971 0.0 0.0 0
M  V30 16 C 2.598 -0.75 0.0 0
M  V30 17 O 2.598 -2.25 0.0 0
M  V30 18 N 1.299 0.0 0.0 0
M  V30 19 C 0.0 -0.75 0.0 0
M  V30 20 C -1.299 0.0 0.0 0
M  V30 21 C 0.0 -2.25 0.0 0
M  V30 22 O -1.299 1.5 0.0 0
M  V30 23 C -2.598 -0.75 0.0 0
M  V30 24 C -1.299 -3.0 0.0 0
M  V30 25 C -2.598 2.25 0.0 0
M  V30 26 C -2.598 -2.25 0.0 0
M  V30 27 C -1.299 -4.5 0.0 0
M  V30 END ATOM
M  V30 BEGIN BOND
M  V30 1 2 1 2
M  V30 2 2 1 3
M  V30 3 1 1 4
M  V30 4 1 1 5
M  V30 5 1 4 6
M  V30 6 1 4 7
M  V30 7 2 5 8
M  V30 8 1 5 9
M  V30 9 1 6 10
M  V30 10 1 7 11
M  V30 11 1 8 12
M  V30 12 2 9 13
M  V30 13 1 10 14
M  V30 14 2 12 15
M  V30 15 1 15 16
M  V30 16 2 16 17
M  V30 17 1 16 18
M  V30 18 1 18 19
M  V30 19 2 19 20
M  V30 20 1 19 21
M  V30 21 1 20 22
M  V30 22 1 20 23
M  V30 23 2 21 24
M  V30 24 1 22 25
M  V30 25 2 23 26
M  V30 26 1 24 27
M  V30 27 1 11 14
M  V30 28 1 13 15
M  V30 29 1 24 26
M  V30 END BOND
M  V30 END CTAB
M  END
>  <Column 1>
155

>  <Column 2>
PandemicResponseBox - Plate B

>  <Column 3>
C11

>  <Column 4>
MMV1578579

>  <Column 5>
10 mM

>  <Column 6>
ANTIBACTERIALS

>  <Column 7>


>  <Column 8>
None

>  <Column 9>


>  <Column 10>
COc1ccc(C)cc1NC(=O)c2ccc(cc2)S(=O)(=O)N3CCCCC3

>  <Column 11>
CHEMBL1560266

>  <Column 12>


>  <Column 13>
388.5

>  <Column 14>
C20 H24 N2 O4 S

>  <Tox-Glu>
ATCTOX

>  <Column 15>


>  <Column 16>
99 

>  <Column 17>
97 

>  <Column 18>
100 

>  <Column 19>


>  <Tox-Gal>
CTOXGAL

>  <Column 20>


>  <Column 21>
100 

>  <Column 22>
81 

>  <Column 23>
92 

>  <Column 24>


>  <Column 25>


>  <PAMPA>
PAMPA

>  <Column 26>
276

>  <Column 27>


>  <Column 28>


>  <Mouse>
ATMETMOU

>  <Column 29>
>768

>  <Column 30>


$$$$
Compound 157
Actelion Java MolfileCreator 2.0

  0  0  0  0  0  0              0 V3000
M  V30 BEGIN CTAB
M  V30 COUNTS 21 23 0 0 0
M  V30 BEGIN ATOM
M  V30 1 F 5.1961 1.5 0.0 0
M  V30 2 C 4.3301 1.0 0.0 0
M  V30 3 C 3.4641 1.5 0.0 0
M  V30 4 C 4.3301 0.0 0.0 0
M  V30 5 C 2.598 0.9999 0.0 0
M  V30 6 C 3.4641 -0.4999 0.0 0
M  V30 7 C 2.598 0.0 0.0 0
M  V30 8 C 1.732 -0.5 0.0 0
M  V30 9 O 1.732 -1.5 0.0 0
M  V30 10 N 0.866 0.0 0.0 0
M  V30 11 C 0.0 -0.5 0.0 0
M  V30 12 O -0.9135 -0.0932 0.0 0
M  V30 13 N -0.1045 -1.4945 0.0 0
M  V30 14 C -1.5826 -0.8364 0.0 0
M  V30 15 N -1.0826 -1.7024 0.0 0
M  V30 16 C -2.5771 -0.7318 0.0 0
M  V30 17 C -2.9839 0.1816 0.0 0
M  V30 18 C -3.1649 -1.5408 0.0 0
M  V30 19 C -3.9784 0.2861 0.0 0
M  V30 20 C -4.1595 -1.4363 0.0 0
M  V30 21 C -4.5662 -0.5228 0.0 0
M  V30 END ATOM
M  V30 BEGIN BOND
M  V30 1 1 1 2
M  V30 2 2 2 3
M  V30 3 1 2 4
M  V30 4 1 3 5
M  V30 5 2 4 6
M  V30 6 2 5 7
M  V30 7 1 7 8
M  V30 8 2 8 9
M  V30 9 1 8 10
M  V30 10 1 10 11
M  V30 11 1 11 12
M  V30 12 2 11 13
M  V30 13 1 12 14
M  V30 14 1 13 15
M  V30 15 1 14 16
M  V30 16 2 16 17
M  V30 17 1 16 18
M  V30 18 1 17 19
M  V30 19 2 18 20
M  V30 20 2 19 21
M  V30 21 1 6 7
M  V30 22 2 14 15
M  V30 23 1 20 21
M  V30 END BOND
M  V30 END CTAB
M  END
>  <Column 1>
156

>  <Column 2>
PandemicResponseBox - Plate B

>  <Column 3>
D11

>  <Column 4>
MMV1578578

>  <Column 5>
10 mM

>  <Column 6>
ANTIBACTERIALS

>  <Column 7>


>  <Column 8>
None

>  <Column 9>
GSK-107678

>  <Column 10>
Fc1ccc(cc1)C(=O)Nc2oc(nn2)c3ccccc3

>  <Column 11>
CHEMBL2097938

>  <Column 12>


>  <Column 13>
283.3

>  <Column 14>
C15 H10 F N3 O2

>  <Tox-Glu>
ATCTOX

>  <Column 15>


>  <Column 16>
84 

>  <Column 17>
59 

>  <Column 18>
39 

>  <Column 19>


>  <Tox-Gal>
CTOXGAL

>  <Column 20>


>  <Column 21>
91 

>  <Column 22>
73 

>  <Column 23>
79 

>  <Column 24>


>  <Column 25>


>  <PAMPA>
PAMPA

>  <Column 26>
185

>  <Column 27>


>  <Column 28>


>  <Mouse>
ATMETMOU

>  <Column 29>
267

>  <Column 30>


$$$$
Compound 158
Actelion Java MolfileCreator 2.0

  0  0  0  0  0  0              0 V3000
M  V30 BEGIN CTAB
M  V30 COUNTS 40 44 0 0 0
M  V30 BEGIN ATOM
M  V30 1 F 6.4951 -4.5 0.0 0
M  V30 2 C 6.4951 -3.0 0.0 0
M  V30 3 C 7.7942 -2.25 0.0 0
M  V30 4 C 5.1961 -2.25 0.0 0
M  V30 5 C 7.7942 -0.75 0.0 0
M  V30 6 C 9.0932 -3.0 0.0 0
M  V30 7 C 5.1961 -0.75 0.0 0
M  V30 8 C 9.0932 0.0 0.0 0
M  V30 9 C 6.4951 0.0 0.0 0
M  V30 10 C 10.3923 -2.25 0.0 0 CFG=2
M  V30 11 N 3.8971 0.0 0.0 0
M  V30 12 O 9.0932 1.5 0.0 0
M  V30 13 C 10.3923 -0.75 0.0 0
M  V30 14 O 6.4951 1.5 0.0 0
M  V30 15 C 11.6913 -2.9999 0.0 0
M  V30 16 C 2.598 -0.75 0.0 0
M  V30 17 C 11.6913 0.0 0.0 0
M  V30 18 C 12.9903 -2.2499 0.0 0 CFG=2
M  V30 19 O 2.598 -2.25 0.0 0
M  V30 20 C 1.299 0.0 0.0 0
M  V30 21 O 11.6913 1.4999 0.0 0
M  V30 22 C 12.9903 -0.75 0.0 0 CFG=2
M  V30 23 C 14.2894 -3.0 0.0 0 CFG=2
M  V30 24 N 0.0 -0.75 0.0 0
M  V30 25 O 12.9903 0.7499 0.0 0
M  V30 26 C 14.2894 0.0 0.0 0
M  V30 27 N 14.2894 -4.5 0.0 0
M  V30 28 C 15.5884 -2.25 0.0 0
M  V30 29 C -1.3703 -0.1398 0.0 0
M  V30 30 C -0.1567 -2.2417 0.0 0
M  V30 31 O 14.2894 1.5 0.0 0
M  V30 32 C 15.5884 -0.75 0.0 0
M  V30 33 C 12.9903 -5.25 0.0 0
M  V30 34 C 15.5884 -5.25 0.0 0
M  V30 35 O 16.8874 -3.0 0.0 0
M  V30 36 C -2.374 -1.2546 0.0 0
M  V30 37 C -1.624 -2.5536 0.0 0
M  V30 38 C 16.8874 0.0 0.0 0
M  V30 39 O 18.1865 -0.75 0.0 0
M  V30 40 N 16.8874 1.4999 0.0 0
M  V30 END ATOM
M  V30 BEGIN BOND
M  V30 1 1 1 2
M  V30 2 2 2 3
M  V30 3 1 2 4
M  V30 4 1 3 5
M  V30 5 1 3 6
M  V30 6 2 4 7
M  V30 7 1 5 8
M  V30 8 2 5 9
M  V30 9 1 10 6 CFG=3
M  V30 10 1 7 11
M  V30 11 1 8 12
M  V30 12 2 8 13
M  V30 13 1 9 14
M  V30 14 1 10 15
M  V30 15 1 11 16
M  V30 16 1 13 17
M  V30 17 1 18 15 CFG=3
M  V30 18 2 16 19
M  V30 19 1 16 20
M  V30 20 2 17 21
M  V30 21 1 22 17
M  V30 22 1 23 18
M  V30 23 1 20 24
M  V30 24 1 22 25 CFG=1
M  V30 25 1 22 26
M  V30 26 1 23 27 CFG=1
M  V30 27 1 23 28
M  V30 28 1 24 29
M  V30 29 1 24 30
M  V30 30 1 26 31
M  V30 31 2 26 32
M  V30 32 1 27 33
M  V30 33 1 27 34
M  V30 34 2 28 35
M  V30 35 1 29 36
M  V30 36 1 30 37
M  V30 37 1 32 38
M  V30 38 2 38 39
M  V30 39 1 38 40
M  V30 40 1 7 9
M  V30 41 1 10 13
M  V30 42 1 18 22
M  V30 43 1 28 32
M  V30 44 1 36 37
M  V30 END BOND
M  V30 BEGIN COLLECTION
M  V30 MDLV30/STEABS ATOMS=(4 10 18 22 23)
M  V30 END COLLECTION
M  V30 END CTAB
M  END
>  <Column 1>
157

>  <Column 2>
PandemicResponseBox - Plate B

>  <Column 3>
E11

>  <Column 4>
MMV1578574

>  <Column 5>
10 mM

>  <Column 6>
ANTIBACTERIALS

>  <Column 7>
2

>  <Column 8>
Hydrochloric acid

>  <Column 9>
Eravacycline

>  <Column 10>
CN(C)[C@H]1[C@@H]2C[C@@H]3Cc4c(F)cc(NC(=O)CN5CCCC5)c(O)c4C(=C3C(=O)[C@]2(O)C(=C(C(=O)N)C1=O)O)O

>  <Column 11>
CHEMBL1951095

>  <Column 12>


>  <Column 13>
631.5

>  <Column 14>
C27 H31 F N4 O8

>  <Tox-Glu>
ATCTOX

>  <Column 15>


>  <Column 16>
92 

>  <Column 17>
91 

>  <Column 18>
73 

>  <Column 19>


>  <Tox-Gal>
CTOXGAL

>  <Column 20>


>  <Column 21>
104 

>  <Column 22>
94 

>  <Column 23>
89 

>  <Column 24>


>  <Column 25>


>  <PAMPA>
PAMPA

>  <Column 26>
21

>  <Column 27>


>  <Column 28>


>  <Mouse>
ATMETMOU

>  <Column 29>
-1

>  <Column 30>


$$$$
Compound 159
Actelion Java MolfileCreator 2.0

  0  0  0  0  0  0              0 V3000
M  V30 BEGIN CTAB
M  V30 COUNTS 17 18 0 0 0
M  V30 BEGIN ATOM
M  V30 1 Br 4.3301 0.0 0.0 0
M  V30 2 C 3.4641 -0.5 0.0 0
M  V30 3 C 2.598 0.0 0.0 0
M  V30 4 C 3.4641 -1.4999 0.0 0
M  V30 5 O 2.598 1.0 0.0 0
M  V30 6 C 1.732 -0.5 0.0 0
M  V30 7 C 2.598 -2.0 0.0 0
M  V30 8 C 1.732 -1.5 0.0 0
M  V30 9 C 0.866 0.0 0.0 0
M  V30 10 Br 2.598 -3.0 0.0 0
M  V30 11 C 0.0 -0.5 0.0 0
M  V30 12 N -0.1045 -1.4945 0.0 0
M  V30 13 C -0.9135 -0.0932 0.0 0
M  V30 14 C -1.0826 -1.7024 0.0 0
M  V30 15 O -1.1214 0.8848 0.0 0
M  V30 16 N -1.5826 -0.8364 0.0 0
M  V30 17 S -1.4894 -2.6159 0.0 0
M  V30 END ATOM
M  V30 BEGIN BOND
M  V30 1 1 1 2
M  V30 2 2 2 3
M  V30 3 1 2 4
M  V30 4 1 3 5
M  V30 5 1 3 6
M  V30 6 2 4 7
M  V30 7 2 6 8
M  V30 8 1 6 9
M  V30 9 1 7 10
M  V30 10 2 9 11
M  V30 11 1 11 12
M  V30 12 1 11 13
M  V30 13 1 12 14
M  V30 14 2 13 15
M  V30 15 1 13 16
M  V30 16 2 14 17
M  V30 17 1 7 8
M  V30 18 1 14 16
M  V30 END BOND
M  V30 END CTAB
M  END
>  <Column 1>
158

>  <Column 2>
PandemicResponseBox - Plate B

>  <Column 3>
F11

>  <Column 4>
MMV1578569

>  <Column 5>
10 mM

>  <Column 6>
ANTIBACTERIALS

>  <Column 7>


>  <Column 8>
None

>  <Column 9>
Bromophenol thiohydantoin

>  <Column 10>
Oc1c(Br)cc(Br)cc1\C=C\2/NC(=S)NC2=O

>  <Column 11>
NA

>  <Column 12>
Tetrahedron�(2016),�72(25),�3554-3558.,Chemical Communications (Cambridge, United Kingdom) (2014), 50(76), 11234-11237. �

>  <Column 13>
378

>  <Column 14>
C10 H6 Br2 N2 O2 S

>  <Tox-Glu>
ATCTOX

>  <Column 15>


>  <Column 16>
100 

>  <Column 17>
92 

>  <Column 18>
26 

>  <Column 19>


>  <Tox-Gal>
CTOXGAL

>  <Column 20>


>  <Column 21>
103 

>  <Column 22>
96 

>  <Column 23>
46 

>  <Column 24>


>  <Column 25>


>  <PAMPA>
PAMPA

>  <Column 26>
47

>  <Column 27>


>  <Column 28>


>  <Mouse>
ATMETMOU

>  <Column 29>
4

>  <Column 30>
Large variations

$$$$
Compound 160
Actelion Java MolfileCreator 2.0

  0  0  0  0  0  0              0 V3000
M  V30 BEGIN CTAB
M  V30 COUNTS 17 18 0 0 0
M  V30 BEGIN ATOM
M  V30 1 O 6.3985 -1.5826 0.0 0
M  V30 2 C 6.8053 -0.6691 0.0 0 CFG=1
M  V30 3 B 5.404 -1.4781 0.0 0
M  V30 4 C 6.0621 0.0 0.0 0
M  V30 5 C 7.7834 -0.4612 0.0 0
M  V30 6 O 4.7349 -2.2212 0.0 0
M  V30 7 C 5.1961 -0.4999 0.0 0
M  V30 8 C 6.0621 1.0 0.0 0
M  V30 9 N 8.0924 0.4898 0.0 0
M  V30 10 C 4.3301 0.0 0.0 0
M  V30 11 C 5.1961 1.5 0.0 0
M  V30 12 O 3.4641 -0.5 0.0 0
M  V30 13 C 4.3301 0.9999 0.0 0
M  V30 14 C 2.598 0.0 0.0 0
M  V30 15 C 1.732 -0.5 0.0 0
M  V30 16 C 0.866 0.0 0.0 0
M  V30 17 O 0.0 -0.5 0.0 0
M  V30 END ATOM
M  V30 BEGIN BOND
M  V30 1 1 2 1
M  V30 2 1 1 3
M  V30 3 1 2 4
M  V30 4 1 2 5 CFG=1
M  V30 5 1 3 6
M  V30 6 1 3 7
M  V30 7 1 4 8
M  V30 8 1 5 9
M  V30 9 1 7 10
M  V30 10 2 8 11
M  V30 11 1 10 12
M  V30 12 2 10 13
M  V30 13 1 12 14
M  V30 14 1 14 15
M  V30 15 1 15 16
M  V30 16 1 16 17
M  V30 17 2 4 7
M  V30 18 1 11 13
M  V30 END BOND
M  V30 BEGIN COLLECTION
M  V30 MDLV30/STEABS ATOMS=(1 2)
M  V30 END COLLECTION
M  V30 END CTAB
M  END
>  <Column 1>
159

>  <Column 2>
PandemicResponseBox - Plate B

>  <Column 3>
G11

>  <Column 4>
MMV1578566

>  <Column 5>
10 mM

>  <Column 6>
ANTIBACTERIALS

>  <Column 7>
1

>  <Column 8>
Hydrochloric acid

>  <Column 9>
Epetraborole

>  <Column 10>
NC[C@H]1OB(O)c2c(OCCCO)cccc12

>  <Column 11>
CHEMBL3549142

>  <Column 12>


>  <Column 13>
273.6

>  <Column 14>
C11 H16 B N O4

>  <Tox-Glu>
ATCTOX

>  <Column 15>


>  <Column 16>
95 

>  <Column 17>
93 

>  <Column 18>
90 

>  <Column 19>


>  <Tox-Gal>
CTOXGAL

>  <Column 20>


>  <Column 21>
104 

>  <Column 22>
101 

>  <Column 23>
105 

>  <Column 24>


>  <Column 25>


>  <PAMPA>
PAMPA

>  <Column 26>
<12

>  <Column 27>


>  <Column 28>


>  <Mouse>
ATMETMOU

>  <Column 29>


>  <Column 30>
Not determined; Broad Peak

$$$$
Compound 161
Actelion Java MolfileCreator 2.0

  0  0  0  0  0  0              0 V3000
M  V30 BEGIN CTAB
M  V30 COUNTS 17 19 0 0 0
M  V30 BEGIN ATOM
M  V30 1 F 6.446 -1.0304 0.0 0
M  V30 2 C 5.4679 -0.8225 0.0 0
M  V30 3 C 5.1588 0.1284 0.0 0
M  V30 4 C 4.7987 -1.5657 0.0 0
M  V30 5 C 4.1807 0.3364 0.0 0
M  V30 6 C 3.8206 -1.3577 0.0 0
M  V30 7 N 3.6807 1.2024 0.0 0
M  V30 8 C 3.5116 -0.4067 0.0 0
M  V30 9 C 2.7026 0.9945 0.0 0
M  V30 10 C 2.598 0.0 0.0 0
M  V30 11 C 1.732 -0.5 0.0 0
M  V30 12 C 0.866 0.0 0.0 0
M  V30 13 C 0.0 -0.5 0.0 0
M  V30 14 N -0.9135 -0.0932 0.0 0
M  V30 15 N -0.1045 -1.4945 0.0 0
M  V30 16 N -1.5826 -0.8364 0.0 0
M  V30 17 N -1.0826 -1.7024 0.0 0
M  V30 END ATOM
M  V30 BEGIN BOND
M  V30 1 1 1 2
M  V30 2 2 2 3
M  V30 3 1 2 4
M  V30 4 1 3 5
M  V30 5 2 4 6
M  V30 6 1 5 7
M  V30 7 2 5 8
M  V30 8 1 7 9
M  V30 9 1 8 10
M  V30 10 1 10 11
M  V30 11 2 11 12
M  V30 12 1 12 13
M  V30 13 2 13 14
M  V30 14 1 13 15
M  V30 15 1 14 16
M  V30 16 1 15 17
M  V30 17 1 6 8
M  V30 18 2 9 10
M  V30 19 2 16 17
M  V30 END BOND
M  V30 END CTAB
M  END
>  <Column 1>
160

>  <Column 2>
PandemicResponseBox - Plate B

>  <Column 3>
H11

>  <Column 4>
MMV1578563

>  <Column 5>
10 mM

>  <Column 6>
ANTIBACTERIALS

>  <Column 7>


>  <Column 8>
None

>  <Column 9>


>  <Column 10>
Fc1ccc2c(\C=C\c3nnn[nH]3)c[nH]c2c1

>  <Column 11>
CHEMBL1812545

>  <Column 12>


>  <Column 13>
229.2

>  <Column 14>
C11 H8 F N5

>  <Tox-Glu>
ATCTOX

>  <Column 15>


>  <Column 16>
102 

>  <Column 17>
99 

>  <Column 18>
102 

>  <Column 19>


>  <Tox-Gal>
CTOXGAL

>  <Column 20>


>  <Column 21>
101 

>  <Column 22>
99 

>  <Column 23>
107 

>  <Column 24>


>  <Column 25>


>  <PAMPA>
PAMPA

>  <Column 26>
2

>  <Column 27>


>  <Column 28>


>  <Mouse>
ATMETMOU

>  <Column 29>
29

>  <Column 30>


$$$$
Compound 162
Actelion Java MolfileCreator 2.0

  0  0  0  0  0  0              0 V3000
M  V30 BEGIN CTAB
M  V30 COUNTS 20 22 0 0 0
M  V30 BEGIN ATOM
M  V30 1 O 1.732 -0.5 0.0 0
M  V30 2 C 0.866 0.0 0.0 0
M  V30 3 C 0.866 1.0 0.0 0
M  V30 4 C 0.0 -0.5 0.0 0
M  V30 5 C 1.732 1.4999 0.0 0
M  V30 6 C 0.0 1.4999 0.0 0
M  V30 7 C -0.9135 -0.0932 0.0 0
M  V30 8 C -0.1045 -1.4945 0.0 0
M  V30 9 C 1.732 2.5 0.0 0
M  V30 10 C 0.0 2.5 0.0 0
M  V30 11 C -1.5826 -0.8364 0.0 0
M  V30 12 C -1.2225 0.8577 0.0 0
M  V30 13 O -1.0826 -1.7024 0.0 0
M  V30 14 C 0.6386 -2.1636 0.0 0
M  V30 15 C 0.866 3.0 0.0 0
M  V30 16 C -2.5608 -0.6284 0.0 0
M  V30 17 C -2.2007 1.0657 0.0 0
M  V30 18 C 1.5896 -1.8546 0.0 0
M  V30 19 O 0.866 4.0 0.0 0
M  V30 20 C -2.8698 0.3225 0.0 0
M  V30 END ATOM
M  V30 BEGIN BOND
M  V30 1 2 1 2
M  V30 2 1 2 3
M  V30 3 1 2 4
M  V30 4 2 3 5
M  V30 5 1 3 6
M  V30 6 1 4 7
M  V30 7 2 4 8
M  V30 8 1 5 9
M  V30 9 2 6 10
M  V30 10 2 7 11
M  V30 11 1 7 12
M  V30 12 1 8 13
M  V30 13 1 8 14
M  V30 14 2 9 15
M  V30 15 1 11 16
M  V30 16 2 12 17
M  V30 17 1 14 18
M  V30 18 1 15 19
M  V30 19 2 16 20
M  V30 20 1 10 15
M  V30 21 1 11 13
M  V30 22 1 17 20
M  V30 END BOND
M  V30 END CTAB
M  END
>  <Column 1>
161

>  <Column 2>
PandemicResponseBox - Plate C

>  <Column 3>
A02

>  <Column 4>
MMV1578558

>  <Column 5>
10 mM

>  <Column 6>
ANTIBACTERIALS

>  <Column 7>


>  <Column 8>
None

>  <Column 9>
Benzarone

>  <Column 10>
CCc1oc2ccccc2c1C(=O)c3ccc(O)cc3

>  <Column 11>
CHEMBL1474963

>  <Column 12>


>  <Column 13>
266.3

>  <Column 14>
C17 H14 O3

>  <Tox-Glu>
ATCTOX

>  <Column 15>


>  <Column 16>
98 

>  <Column 17>
52 

>  <Column 18>
1 

>  <Column 19>


>  <Tox-Gal>
CTOXGAL

>  <Column 20>


>  <Column 21>
101 

>  <Column 22>
0 

>  <Column 23>
1 

>  <Column 24>


>  <Column 25>


>  <PAMPA>
PAMPA

>  <Column 26>
77

>  <Column 27>


>  <Column 28>


>  <Mouse>
ATMETMOU

>  <Column 29>
>768

>  <Column 30>


$$$$
Compound 163
Actelion Java MolfileCreator 2.0

  0  0  0  0  0  0              0 V3000
M  V30 BEGIN CTAB
M  V30 COUNTS 22 24 0 0 0
M  V30 BEGIN ATOM
M  V30 1 Cl 5.3076 4.8566 0.0 0
M  V30 2 C 4.9009 3.943 0.0 0
M  V30 3 C 3.9064 3.8385 0.0 0
M  V30 4 C 5.4887 3.134 0.0 0
M  V30 5 C 3.4997 2.9249 0.0 0
M  V30 6 C 5.082 2.2205 0.0 0
M  V30 7 C 4.0874 2.1159 0.0 0
M  V30 8 C 3.6807 1.2024 0.0 0
M  V30 9 O 2.7026 0.9945 0.0 0
M  V30 10 N 4.1807 0.3364 0.0 0
M  V30 11 C 2.598 0.0 0.0 0
M  V30 12 N 3.5116 -0.4067 0.0 0
M  V30 13 N 1.732 -0.5 0.0 0
M  V30 14 C 0.866 0.0 0.0 0
M  V30 15 O 0.866 1.0 0.0 0
M  V30 16 C 0.0 -0.5 0.0 0
M  V30 17 C -0.866 0.0 0.0 0
M  V30 18 C 0.0 -1.4999 0.0 0
M  V30 19 C -1.732 -0.4999 0.0 0
M  V30 20 C -0.866 -1.9999 0.0 0
M  V30 21 C -1.732 -1.4999 0.0 0
M  V30 22 F -2.598 -1.9999 0.0 0
M  V30 END ATOM
M  V30 BEGIN BOND
M  V30 1 1 1 2
M  V30 2 2 2 3
M  V30 3 1 2 4
M  V30 4 1 3 5
M  V30 5 2 4 6
M  V30 6 2 5 7
M  V30 7 1 7 8
M  V30 8 1 8 9
M  V30 9 2 8 10
M  V30 10 1 9 11
M  V30 11 1 10 12
M  V30 12 1 11 13
M  V30 13 1 13 14
M  V30 14 2 14 15
M  V30 15 1 14 16
M  V30 16 2 16 17
M  V30 17 1 16 18
M  V30 18 1 17 19
M  V30 19 2 18 20
M  V30 20 2 19 21
M  V30 21 1 21 22
M  V30 22 1 6 7
M  V30 23 2 11 12
M  V30 24 1 20 21
M  V30 END BOND
M  V30 END CTAB
M  END
>  <Column 1>
162

>  <Column 2>
PandemicResponseBox - Plate C

>  <Column 3>
B02

>  <Column 4>
MMV1782140

>  <Column 5>
10 mM

>  <Column 6>
ANTIBACTERIALS

>  <Column 7>


>  <Column 8>
None

>  <Column 9>


>  <Column 10>
ClC3=CC=C(C1=NN=C(O1)NC(=O)C2=CC=C(F)C=C2)C=C3

>  <Column 11>
CHEMBL2098451

>  <Column 12>


>  <Column 13>
317.7

>  <Column 14>
C15 H9 Cl F N3 O2

>  <Tox-Glu>
ATCTOX

>  <Column 15>


>  <Column 16>
81 

>  <Column 17>
56 

>  <Column 18>
69 

>  <Column 19>


>  <Tox-Gal>
CTOXGAL

>  <Column 20>


>  <Column 21>
83 

>  <Column 22>
79 

>  <Column 23>
34 

>  <Column 24>


>  <Column 25>


>  <PAMPA>
PAMPA

>  <Column 26>
164

>  <Column 27>


>  <Column 28>


>  <Mouse>
ATMETMOU

>  <Column 29>


>  <Column 30>
Not determined; Two Peaks

$$$$
Compound 164
Actelion Java MolfileCreator 2.0

  0  0  0  0  0  0              0 V3000
M  V30 BEGIN CTAB
M  V30 COUNTS 47 52 0 0 0
M  V30 BEGIN ATOM
M  V30 1 O 16.5976 -5.641 0.0 0
M  V30 2 C 15.4829 -4.6373 0.0 0
M  V30 3 N 15.7948 -3.1701 0.0 0
M  V30 4 C 14.0563 -5.1009 0.0 0
M  V30 5 C 14.68 -2.1664 0.0 0
M  V30 6 C 12.9416 -4.0972 0.0 0
M  V30 7 C 13.7444 -6.5681 0.0 0
M  V30 8 C 14.8368 -0.6746 0.0 0
M  V30 9 C 13.2128 -2.4783 0.0 0
M  V30 10 C 11.515 -4.5607 0.0 0
M  V30 11 C 12.3179 -7.0316 0.0 0
M  V30 12 N 13.4665 -0.0645 0.0 0
M  V30 13 C 12.4628 -1.1792 0.0 0
M  V30 14 C 11.2031 -6.0279 0.0 0
M  V30 15 C 13.1547 1.4026 0.0 0
M  V30 16 C 10.971 -1.0224 0.0 0
M  V30 17 C 9.7766 -6.4914 0.0 0
M  V30 18 O 10.0894 -2.236 0.0 0
M  V30 19 N 10.3609 0.3478 0.0 0
M  V30 20 C 8.6618 -5.4877 0.0 0
M  V30 21 C 8.8692 0.5046 0.0 0
M  V30 22 C 7.2353 -5.9513 0.0 0
M  V30 23 C 8.1192 1.8036 0.0 0
M  V30 24 C 7.8655 -0.6101 0.0 0
M  V30 25 C 6.1205 -4.9476 0.0 0
M  V30 26 C 6.9234 -7.4185 0.0 0
M  V30 27 N 6.6519 1.4917 0.0 0
M  V30 28 C 6.4951 0.0 0.0 0
M  V30 29 N 4.694 -5.4111 0.0 0
M  V30 30 C 5.4968 -7.882 0.0 0
M  V30 31 C 5.5372 2.4954 0.0 0
M  V30 32 C 5.1961 -0.75 0.0 0
M  V30 33 C 4.3821 -6.8783 0.0 0
M  V30 34 C 5.1849 -9.3492 0.0 0
M  V30 35 O 5.1961 -2.25 0.0 0
M  V30 36 N 3.8971 0.0 0.0 0
M  V30 37 C 2.9555 -7.3418 0.0 0
M  V30 38 C 3.7584 -9.8128 0.0 0
M  V30 39 C 2.598 -0.75 0.0 0
M  V30 40 C 2.6436 -8.8091 0.0 0
M  V30 41 C 1.299 0.0 0.0 0
M  V30 42 N 0.0 -0.75 0.0 0
M  V30 43 C -1.299 0.0 0.0 0
M  V30 44 C 0.0 -2.2499 0.0 0
M  V30 45 C -2.598 -0.7499 0.0 0
M  V30 46 C -1.299 -2.9999 0.0 0
M  V30 47 O -2.598 -2.2499 0.0 0
M  V30 END ATOM
M  V30 BEGIN BOND
M  V30 1 2 1 2
M  V30 2 1 2 3
M  V30 3 1 2 4
M  V30 4 1 3 5
M  V30 5 2 4 6
M  V30 6 1 4 7
M  V30 7 2 5 8
M  V30 8 1 5 9
M  V30 9 1 6 10
M  V30 10 2 7 11
M  V30 11 1 8 12
M  V30 12 2 9 13
M  V30 13 2 10 14
M  V30 14 1 12 15
M  V30 15 1 13 16
M  V30 16 1 14 17
M  V30 17 2 16 18
M  V30 18 1 16 19
M  V30 19 2 17 20
M  V30 20 1 19 21
M  V30 21 1 20 22
M  V30 22 2 21 23
M  V30 23 1 21 24
M  V30 24 1 22 25
M  V30 25 2 22 26
M  V30 26 1 23 27
M  V30 27 2 24 28
M  V30 28 2 25 29
M  V30 29 1 26 30
M  V30 30 1 27 31
M  V30 31 1 28 32
M  V30 32 1 29 33
M  V30 33 2 30 34
M  V30 34 2 32 35
M  V30 35 1 32 36
M  V30 36 2 33 37
M  V30 37 1 34 38
M  V30 38 1 36 39
M  V30 39 1 37 40
M  V30 40 1 39 41
M  V30 41 1 41 42
M  V30 42 1 42 43
M  V30 43 1 42 44
M  V30 44 1 43 45
M  V30 45 1 44 46
M  V30 46 1 45 47
M  V30 47 1 11 14
M  V30 48 1 12 13
M  V30 49 1 27 28
M  V30 50 1 30 33
M  V30 51 2 38 40
M  V30 52 1 46 47
M  V30 END BOND
M  V30 END CTAB
M  END
>  <Column 1>
163

>  <Column 2>
PandemicResponseBox - Plate C

>  <Column 3>
C02

>  <Column 4>
MMV1634391

>  <Column 5>
10 mM

>  <Column 6>
ANTIBACTERIALS

>  <Column 7>


>  <Column 8>
None

>  <Column 9>


>  <Column 10>
O=C(NC1=C[N](C)C(=C1)C(=O)NC2=C[N](C)C(=C2)C(=O)NCCN3CCOCC3)C6=CC=C(\C=C\C5=CC4=CC=CC=C4N=C5)C=C6

>  <Column 11>
CHEMBL236345

>  <Column 12>
Journal of Medicinal Chemistry (2007), 50(24), 6116-6125;WO 2008038018

>  <Column 13>
631.7

>  <Column 14>
C36 H37 N7 O4

>  <Tox-Glu>
ATCTOX

>  <Column 15>


>  <Column 16>
71 

>  <Column 17>
30 

>  <Column 18>
16 

>  <Column 19>


>  <Tox-Gal>
CTOXGAL

>  <Column 20>


>  <Column 21>
91 

>  <Column 22>
36 

>  <Column 23>
3 

>  <Column 24>


>  <Column 25>


>  <PAMPA>
PAMPA

>  <Column 26>
undetected

>  <Column 27>
low sensitivity

>  <Column 28>


>  <Mouse>
ATMETMOU

>  <Column 29>
-10

>  <Column 30>
Low sensitivity

$$$$
Compound 165
Actelion Java MolfileCreator 2.0

  0  0  0  0  0  0              0 V3000
M  V30 BEGIN CTAB
M  V30 COUNTS 36 40 0 0 0
M  V30 BEGIN ATOM
M  V30 1 S 1.732 2.4999 0.0 0
M  V30 2 C 2.5513 2.9694 0.0 0 CFG=1
M  V30 3 C 1.732 1.4999 0.0 0
M  V30 4 C 3.4641 2.4999 0.0 0
M  V30 5 C 2.598 3.9999 0.0 0
M  V30 6 C 0.866 0.9999 0.0 0
M  V30 7 C 4.6156 3.2306 0.0 0 CFG=1
M  V30 8 C 3.8066 4.6319 0.0 0 CFG=2
M  V30 9 O 0.0 1.5 0.0 0
M  V30 10 O 0.866 0.0 0.0 0
M  V30 11 N 3.702 3.6374 0.0 0
M  V30 12 C 5.2847 3.9738 0.0 0
M  V30 13 C 4.7847 4.8398 0.0 0
M  V30 14 C 0.0 -0.5 0.0 0 CFG=1
M  V30 15 C 2.9229 3.2127 0.0 0
M  V30 16 C 0.1191 -1.5522 0.0 0 CFG=2
M  V30 17 C -0.8042 0.0942 0.0 0
M  V30 18 C 0.6347 -2.409 0.0 0 CFG=1
M  V30 19 C -0.8807 -1.5704 0.0 0 CFG=2
M  V30 20 C 1.066 -1.2308 0.0 0
M  V30 21 C -1.8486 -0.0426 0.0 0 CFG=1
M  V30 22 C 0.1505 -3.284 0.0 0
M  V30 23 C 1.6346 -2.3908 0.0 0
M  V30 24 C -1.5632 -0.8395 0.0 0
M  V30 25 C -1.3648 -2.4453 0.0 0 CFG=2
M  V30 26 C -2.3088 0.8025 0.0 0
M  V30 27 C -2.4022 -0.8133 0.0 0 CFG=2
M  V30 28 C -1.3672 0.8504 0.0 0
M  V30 29 C -0.8492 -3.3021 0.0 0
M  V30 30 O -1.3487 0.1807 0.0 0
M  V30 31 C -2.5342 -1.3003 0.0 0
M  V30 32 C -2.1608 -1.8268 0.0 0 CFG=2
M  V30 33 C -2.3409 -2.3118 0.0 0
M  V30 34 C -1.8246 1.6774 0.0 0
M  V30 35 O -3.3579 -0.6173 0.0 0
M  V30 36 C -3.0861 -2.3786 0.0 0
M  V30 END ATOM
M  V30 BEGIN BOND
M  V30 1 1 2 1 CFG=1
M  V30 2 1 1 3
M  V30 3 1 2 4
M  V30 4 1 2 5
M  V30 5 1 3 6
M  V30 6 1 7 4
M  V30 7 1 8 5
M  V30 8 2 6 9
M  V30 9 1 6 10
M  V30 10 1 7 11 CFG=1
M  V30 11 1 7 12
M  V30 12 1 8 13
M  V30 13 1 14 10 CFG=1
M  V30 14 1 11 15
M  V30 15 1 16 14
M  V30 16 1 14 17
M  V30 17 1 18 16
M  V30 18 1 19 16
M  V30 19 1 16 20 CFG=1
M  V30 20 1 21 17
M  V30 21 1 18 22
M  V30 22 1 18 23 CFG=3
M  V30 23 1 19 24 CFG=1
M  V30 24 1 25 19
M  V30 25 1 21 26
M  V30 26 1 27 21
M  V30 27 1 21 28 CFG=1
M  V30 28 1 22 29
M  V30 29 2 24 30
M  V30 30 1 24 31
M  V30 31 1 32 25
M  V30 32 1 25 33 CFG=1
M  V30 33 2 26 34
M  V30 34 1 27 35 CFG=3
M  V30 35 1 32 36 CFG=1
M  V30 36 1 8 11 CFG=1
M  V30 37 1 12 13
M  V30 38 1 25 29
M  V30 39 1 27 32
M  V30 40 1 31 33
M  V30 END BOND
M  V30 BEGIN COLLECTION
M  V30 MDLV30/STEABS ATOMS=(11 2 7 8 14 16 18 19 21 25 27 32)
M  V30 END COLLECTION
M  V30 END CTAB
M  END
>  <Column 1>
164

>  <Column 2>
PandemicResponseBox - Plate C

>  <Column 3>
D02

>  <Column 4>
MMV1633674

>  <Column 5>
10 mM

>  <Column 6>
ANTIBACTERIALS

>  <Column 7>


>  <Column 8>
None

>  <Column 9>
Retapamulin

>  <Column 10>
C[C@@H]1CC[C@@]23CCC(=O)[C@H]2[C@]1(C)[C@@H](C[C@@](C)(C=C)[C@@H](O)[C@@H]3C)OC(=O)CS[C@@H]4C[C@H]5CC[C@@H](C4)N5C

>  <Column 11>
CHEMBL1658

>  <Column 12>


>  <Column 13>
517.8

>  <Column 14>
C30 H47 N O4 S

>  <Tox-Glu>
ATCTOX

>  <Column 15>


>  <Column 16>
101 

>  <Column 17>
75 

>  <Column 18>
1 

>  <Column 19>


>  <Tox-Gal>
CTOXGAL

>  <Column 20>


>  <Column 21>
98 

>  <Column 22>
76 

>  <Column 23>
3 

>  <Column 24>


>  <Column 25>


>  <PAMPA>
PAMPA

>  <Column 26>
426

>  <Column 27>


>  <Column 28>


>  <Mouse>
ATMETMOU

>  <Column 29>
345

>  <Column 30>


$$$$
Compound 166
Actelion Java MolfileCreator 2.0

  0  0  0  0  0  0              0 V3000
M  V30 BEGIN CTAB
M  V30 COUNTS 10 10 0 0 0
M  V30 BEGIN ATOM
M  V30 1 O 2.598 0.0 0.0 0
M  V30 2 C 1.732 -0.5 0.0 0
M  V30 3 N 0.866 0.0 0.0 0
M  V30 4 C 1.732 -1.5 0.0 0
M  V30 5 N 0.0 -0.5 0.0 0
M  V30 6 C 0.866 -1.9999 0.0 0
M  V30 7 C 2.598 -2.0 0.0 0
M  V30 8 C 0.866 -2.9999 0.0 0
M  V30 9 C 2.598 -3.0 0.0 0
M  V30 10 N 1.732 -3.5 0.0 0
M  V30 END ATOM
M  V30 BEGIN BOND
M  V30 1 2 1 2
M  V30 2 1 2 3
M  V30 3 1 2 4
M  V30 4 1 3 5
M  V30 5 2 4 6
M  V30 6 1 4 7
M  V30 7 1 6 8
M  V30 8 2 7 9
M  V30 9 2 8 10
M  V30 10 1 9 10
M  V30 END BOND
M  V30 END CTAB
M  END
>  <Column 1>
165

>  <Column 2>
PandemicResponseBox - Plate C

>  <Column 3>
E02

>  <Column 4>
MMV002169

>  <Column 5>
10 mM

>  <Column 6>
ANTIBACTERIALS

>  <Column 7>


>  <Column 8>
None

>  <Column 9>
Isoniazid

>  <Column 10>
NNC(=O)c1ccncc1

>  <Column 11>
CHEMBL64

>  <Column 12>


>  <Column 13>
137.1

>  <Column 14>
C6H7N3O

>  <Tox-Glu>
ATCTOX

>  <Column 15>


>  <Column 16>
101 

>  <Column 17>
100 

>  <Column 18>
100 

>  <Column 19>


>  <Tox-Gal>
CTOXGAL

>  <Column 20>


>  <Column 21>
94 

>  <Column 22>
80 

>  <Column 23>
92 

>  <Column 24>


>  <Column 25>


>  <PAMPA>
PAMPA

>  <Column 26>
undetected

>  <Column 27>
low sensitivity

>  <Column 28>


>  <Mouse>
ATMETMOU

>  <Column 29>


>  <Column 30>
Not determined; Low sensitivity

$$$$
Compound 167
Actelion Java MolfileCreator 2.0

  0  0  0  0  0  0              0 V3000
M  V30 BEGIN CTAB
M  V30 COUNTS 19 21 0 0 0
M  V30 BEGIN ATOM
M  V30 1 O 1.732 -1.5 0.0 0
M  V30 2 C 1.732 -0.5 0.0 0
M  V30 3 N 2.598 0.0 0.0 0
M  V30 4 C 0.866 0.0 0.0 0 CFG=1
M  V30 5 C 2.598 0.9999 0.0 0
M  V30 6 N 0.0 -0.5 0.0 0
M  V30 7 C 0.866 1.0 0.0 0
M  V30 8 O 3.4641 1.4999 0.0 0
M  V30 9 C 1.732 1.4999 0.0 0
M  V30 10 C -0.9135 -0.0932 0.0 0
M  V30 11 C -0.1045 -1.4945 0.0 0
M  V30 12 O -1.1214 0.8848 0.0 0
M  V30 13 C -1.5826 -0.8364 0.0 0
M  V30 14 O 0.6386 -2.1636 0.0 0
M  V30 15 C -1.0826 -1.7024 0.0 0
M  V30 16 C -2.5826 -0.8364 0.0 0
M  V30 17 C -1.5826 -2.5684 0.0 0
M  V30 18 C -3.0826 -1.7024 0.0 0
M  V30 19 C -2.5826 -2.5684 0.0 0
M  V30 END ATOM
M  V30 BEGIN BOND
M  V30 1 2 1 2
M  V30 2 1 2 3
M  V30 3 1 4 2
M  V30 4 1 3 5
M  V30 5 1 4 6 CFG=1
M  V30 6 1 4 7
M  V30 7 2 5 8
M  V30 8 1 5 9
M  V30 9 1 6 10
M  V30 10 1 6 11
M  V30 11 2 10 12
M  V30 12 1 10 13
M  V30 13 2 11 14
M  V30 14 1 11 15
M  V30 15 1 13 16
M  V30 16 1 15 17
M  V30 17 2 16 18
M  V30 18 2 17 19
M  V30 19 1 7 9
M  V30 20 2 13 15
M  V30 21 1 18 19
M  V30 END BOND
M  V30 BEGIN COLLECTION
M  V30 MDLV30/STERAC1 ATOMS=(1 4)
M  V30 END COLLECTION
M  V30 END CTAB
M  END
>  <Column 1>
166

>  <Column 2>
PandemicResponseBox - Plate C

>  <Column 3>
F02

>  <Column 4>
MMV002612

>  <Column 5>
10 mM

>  <Column 6>
ANTIBACTERIALS

>  <Column 7>


>  <Column 8>
None

>  <Column 9>
Thalidomide

>  <Column 10>
O=C1CCC(N2C(=O)c3ccccc3C2=O)C(=O)N1

>  <Column 11>
CHEMBL468

>  <Column 12>


>  <Column 13>
258.2

>  <Column 14>
C13H10N2O4

>  <Tox-Glu>
ATCTOX

>  <Column 15>


>  <Column 16>
100 

>  <Column 17>
96 

>  <Column 18>
99 

>  <Column 19>


>  <Tox-Gal>
CTOXGAL

>  <Column 20>


>  <Column 21>
92 

>  <Column 22>
79 

>  <Column 23>
93 

>  <Column 24>


>  <Column 25>


>  <PAMPA>
PAMPA

>  <Column 26>
undetected

>  <Column 27>
low sensitivity

>  <Column 28>


>  <Mouse>
ATMETMOU

>  <Column 29>


>  <Column 30>
Not determined; Low sensitivity

$$$$
Compound 168
Actelion Java MolfileCreator 2.0

  0  0  0  0  0  0              0 V3000
M  V30 BEGIN CTAB
M  V30 COUNTS 19 20 0 0 0
M  V30 BEGIN ATOM
M  V30 1 O 5.5366 1.1939 0.0 0
M  V30 2 N 4.5855 0.8848 0.0 0 CHG=1 VAL=5
M  V30 3 O 3.8424 1.554 0.0 0 CHG=-1
M  V30 4 C 4.3776 -0.0932 0.0 0
M  V30 5 N 3.4641 -0.5 0.0 0
M  V30 6 C 5.0467 -0.8364 0.0 0
M  V30 7 C 3.5686 -1.4945 0.0 0
M  V30 8 C 2.598 0.0 0.0 0
M  V30 9 N 4.5467 -1.7024 0.0 0
M  V30 10 C 2.8254 -2.1636 0.0 0
M  V30 11 C 1.732 -0.5 0.0 0 CFG=2
M  V30 12 O 1.732 -1.5 0.0 0
M  V30 13 C 0.866 0.0 0.0 0
M  V30 14 N 0.0 -0.5 0.0 0
M  V30 15 C -0.866 0.0 0.0 0
M  V30 16 C 0.0 -1.4999 0.0 0
M  V30 17 C -1.732 -0.4999 0.0 0
M  V30 18 C -0.866 -1.9999 0.0 0
M  V30 19 O -1.732 -1.4999 0.0 0
M  V30 END ATOM
M  V30 BEGIN BOND
M  V30 1 2 1 2
M  V30 2 1 2 3
M  V30 3 1 2 4
M  V30 4 1 4 5
M  V30 5 2 4 6
M  V30 6 1 5 7
M  V30 7 1 5 8
M  V30 8 1 6 9
M  V30 9 1 7 10
M  V30 10 1 11 8
M  V30 11 1 11 12 CFG=3
M  V30 12 1 11 13
M  V30 13 1 13 14
M  V30 14 1 14 15
M  V30 15 1 14 16
M  V30 16 1 15 17
M  V30 17 1 16 18
M  V30 18 1 17 19
M  V30 19 2 7 9
M  V30 20 1 18 19
M  V30 END BOND
M  V30 BEGIN COLLECTION
M  V30 MDLV30/STERAC1 ATOMS=(1 11)
M  V30 END COLLECTION
M  V30 END CTAB
M  END
>  <Column 1>
167

>  <Column 2>
PandemicResponseBox - Plate C

>  <Column 3>
G02

>  <Column 4>
MMV1613562

>  <Column 5>
10 mM

>  <Column 6>
ANTIBACTERIALS

>  <Column 7>


>  <Column 8>
None

>  <Column 9>
Morinidazole

>  <Column 10>
CC1=NC=C([N]1CC(O)CN2CCOCC2)[N](=O)=O

>  <Column 11>
CHEMBL3884248

>  <Column 12>


>  <Column 13>
270.3

>  <Column 14>
C11 H18 N4 O4

>  <Tox-Glu>
ATCTOX

>  <Column 15>


>  <Column 16>
97 

>  <Column 17>
92 

>  <Column 18>
94 

>  <Column 19>


>  <Tox-Gal>
CTOXGAL

>  <Column 20>


>  <Column 21>
89 

>  <Column 22>
78 

>  <Column 23>
87 

>  <Column 24>


>  <Column 25>


>  <PAMPA>
PAMPA

>  <Column 26>
undetected

>  <Column 27>
low sensitivity

>  <Column 28>


>  <Mouse>
ATMETMOU

>  <Column 29>
4

>  <Column 30>
Large variations

$$$$
Compound 169
Actelion Java MolfileCreator 2.0

  0  0  0  0  0  0              0 V3000
M  V30 BEGIN CTAB
M  V30 COUNTS 37 41 0 0 0
M  V30 BEGIN ATOM
M  V30 1 Br 6.9282 -4.5 0.0 0
M  V30 2 C 6.9282 -3.4999 0.0 0
M  V30 3 C 6.0621 -3.0 0.0 0
M  V30 4 C 7.7942 -2.9999 0.0 0
M  V30 5 C 6.0621 -1.9999 0.0 0
M  V30 6 C 7.7942 -2.0 0.0 0
M  V30 7 C 6.9282 -1.4999 0.0 0
M  V30 8 C 5.1961 -1.5 0.0 0
M  V30 9 N 6.9282 -0.4999 0.0 0
M  V30 10 C 5.1961 -0.5 0.0 0
M  V30 11 C 6.0621 0.0 0.0 0
M  V30 12 C 4.3301 0.0 0.0 0 CFG=1
M  V30 13 O 6.0621 1.0 0.0 0
M  V30 14 C 4.2246 1.0585 0.0 0
M  V30 15 C 3.4641 -0.5 0.0 0 CFG=2
M  V30 16 C 6.9282 1.5 0.0 0
M  V30 17 C 5.1961 1.4999 0.0 0
M  V30 18 C 3.4641 1.5 0.0 0
M  V30 19 O 3.4641 -1.5 0.0 0
M  V30 20 C 3.4641 0.4999 0.0 0
M  V30 21 C 2.598 0.0 0.0 0
M  V30 22 C 5.1961 2.4999 0.0 0
M  V30 23 C 3.6473 2.6388 0.0 0
M  V30 24 C 2.598 1.0 0.0 0
M  V30 25 C 4.5289 0.8641 0.0 0
M  V30 26 C 1.732 -0.4999 0.0 0
M  V30 27 C 4.3301 2.9999 0.0 0
M  V30 28 C 2.598 1.9999 0.0 0
M  V30 29 C 1.732 0.5 0.0 0
M  V30 30 C 4.3301 1.9999 0.0 0
M  V30 31 N 1.732 -1.4999 0.0 0
M  V30 32 C 3.326 2.4727 0.0 0
M  V30 33 C 1.732 2.5 0.0 0
M  V30 34 C 0.866 0.9999 0.0 0
M  V30 35 C 2.598 -2.0 0.0 0
M  V30 36 C 0.866 -2.0 0.0 0
M  V30 37 C 0.866 1.9999 0.0 0
M  V30 END ATOM
M  V30 BEGIN BOND
M  V30 1 1 1 2
M  V30 2 2 2 3
M  V30 3 1 2 4
M  V30 4 1 3 5
M  V30 5 2 4 6
M  V30 6 1 5 7
M  V30 7 2 5 8
M  V30 8 2 7 9
M  V30 9 1 8 10
M  V30 10 1 9 11
M  V30 11 1 12 10 CFG=3
M  V30 12 1 11 13
M  V30 13 1 12 14
M  V30 14 1 15 12
M  V30 15 1 13 16
M  V30 16 2 14 17
M  V30 17 1 14 18
M  V30 18 1 15 19
M  V30 19 1 15 20 CFG=3
M  V30 20 1 15 21
M  V30 21 1 17 22
M  V30 22 2 18 23
M  V30 23 1 20 24
M  V30 24 2 20 25
M  V30 25 1 21 26
M  V30 26 2 22 27
M  V30 27 1 24 28
M  V30 28 2 24 29
M  V30 29 1 25 30
M  V30 30 1 26 31
M  V30 31 1 28 32
M  V30 32 2 28 33
M  V30 33 1 29 34
M  V30 34 1 31 35
M  V30 35 1 31 36
M  V30 36 1 33 37
M  V30 37 1 6 7
M  V30 38 2 10 11
M  V30 39 1 23 27
M  V30 40 2 30 32
M  V30 41 2 34 37
M  V30 END BOND
M  V30 BEGIN COLLECTION
M  V30 MDLV30/STEABS ATOMS=(2 12 15)
M  V30 END COLLECTION
M  V30 END CTAB
M  END
>  <Column 1>
168

>  <Column 2>
PandemicResponseBox - Plate C

>  <Column 3>
H02

>  <Column 4>
MMV689758

>  <Column 5>
10 mM

>  <Column 6>
ANTIBACTERIALS

>  <Column 7>


>  <Column 8>
None

>  <Column 9>
Bedaquiline

>  <Column 10>
COc1nc2ccc(Br)cc2cc1[C@@H](c3ccccc3)[C@@](O)(CCN(C)C)c4cccc5ccccc45

>  <Column 11>
CHEMBL376488

>  <Column 12>


>  <Column 13>
555.5

>  <Column 14>
C32 H31 Br N2 O2

>  <Tox-Glu>
ATCTOX

>  <Column 15>


>  <Column 16>
79 

>  <Column 17>
48 

>  <Column 18>
1 

>  <Column 19>


>  <Tox-Gal>
CTOXGAL

>  <Column 20>


>  <Column 21>
86 

>  <Column 22>
64 

>  <Column 23>
8 

>  <Column 24>


>  <Column 25>


>  <PAMPA>
PAMPA

>  <Column 26>
8

>  <Column 27>


>  <Column 28>


>  <Mouse>
ATMETMOU

>  <Column 29>
59

>  <Column 30>


$$$$
Compound 170
Actelion Java MolfileCreator 2.0

  0  0  0  0  0  0              0 V3000
M  V30 BEGIN CTAB
M  V30 COUNTS 25 28 0 0 0
M  V30 BEGIN ATOM
M  V30 1 S 2.7026 0.9945 0.0 0
M  V30 2 C 2.598 0.0 0.0 0
M  V30 3 C 3.6807 1.2024 0.0 0
M  V30 4 N 3.5116 -0.4067 0.0 0
M  V30 5 N 1.732 -0.5 0.0 0
M  V30 6 C 4.1807 0.3364 0.0 0
M  V30 7 C 4.0874 2.1159 0.0 0
M  V30 8 C 0.866 0.0 0.0 0
M  V30 9 C 3.4997 2.9249 0.0 0
M  V30 10 O 0.866 1.0 0.0 0
M  V30 11 C 0.0 -0.5 0.0 0
M  V30 12 C 3.9064 3.8385 0.0 0
M  V30 13 C 2.5051 2.8204 0.0 0
M  V30 14 C -0.866 0.0 0.0 0
M  V30 15 C 0.0 -1.4999 0.0 0
M  V30 16 C 3.3186 4.6475 0.0 0
M  V30 17 C 4.9009 3.943 0.0 0
M  V30 18 C 1.9173 3.6294 0.0 0
M  V30 19 C -1.732 -0.4999 0.0 0
M  V30 20 C -0.866 -1.9999 0.0 0
M  V30 21 C 2.3241 4.543 0.0 0
M  V30 22 C 3.7253 5.5611 0.0 0
M  V30 23 C 5.3076 4.8566 0.0 0
M  V30 24 C -1.732 -1.4999 0.0 0
M  V30 25 C 4.7199 5.6656 0.0 0
M  V30 END ATOM
M  V30 BEGIN BOND
M  V30 1 1 1 2
M  V30 2 1 1 3
M  V30 3 2 2 4
M  V30 4 1 2 5
M  V30 5 2 3 6
M  V30 6 1 3 7
M  V30 7 1 5 8
M  V30 8 1 7 9
M  V30 9 2 8 10
M  V30 10 1 8 11
M  V30 11 1 9 12
M  V30 12 2 9 13
M  V30 13 1 11 14
M  V30 14 1 11 15
M  V30 15 1 12 16
M  V30 16 2 12 17
M  V30 17 1 13 18
M  V30 18 1 14 19
M  V30 19 1 15 20
M  V30 20 1 16 21
M  V30 21 2 16 22
M  V30 22 1 17 23
M  V30 23 1 19 24
M  V30 24 1 22 25
M  V30 25 1 4 6
M  V30 26 2 18 21
M  V30 27 1 20 24
M  V30 28 2 23 25
M  V30 END BOND
M  V30 END CTAB
M  END
>  <Column 1>
169

>  <Column 2>
PandemicResponseBox - Plate C

>  <Column 3>
A03

>  <Column 4>
MMV1593532

>  <Column 5>
10 mM

>  <Column 6>
ANTIBACTERIALS

>  <Column 7>


>  <Column 8>
None

>  <Column 9>


>  <Column 10>
O=C(Nc1ncc(Cc2cccc3ccccc23)s1)C4CCCCC4

>  <Column 11>
CHEMBL3394576

>  <Column 12>


>  <Column 13>
350.5

>  <Column 14>
C21 H22 N2 O S

>  <Tox-Glu>
ATCTOX

>  <Column 15>


>  <Column 16>
100 

>  <Column 17>
91 

>  <Column 18>
94 

>  <Column 19>


>  <Tox-Gal>
CTOXGAL

>  <Column 20>


>  <Column 21>
85 

>  <Column 22>
32 

>  <Column 23>
15 

>  <Column 24>


>  <Column 25>


>  <PAMPA>
PAMPA

>  <Column 26>
52

>  <Column 27>


>  <Column 28>


>  <Mouse>
ATMETMOU

>  <Column 29>
319

>  <Column 30>


$$$$
Compound 171
Actelion Java MolfileCreator 2.0

  0  0  0  0  0  0              0 V3000
M  V30 BEGIN CTAB
M  V30 COUNTS 14 14 0 0 0
M  V30 BEGIN ATOM
M  V30 1 O 5.1961 -0.5 0.0 0
M  V30 2 C 4.3301 0.0 0.0 0
M  V30 3 N 3.4641 -0.5 0.0 0
M  V30 4 C 4.3301 1.0 0.0 0
M  V30 5 C 2.598 0.0 0.0 0
M  V30 6 C 5.1961 1.4999 0.0 0
M  V30 7 C 3.4641 1.5 0.0 0
M  V30 8 C 1.732 -0.5 0.0 0
M  V30 9 C 5.1961 2.4999 0.0 0
M  V30 10 C 3.4641 2.5 0.0 0
M  V30 11 C 0.866 0.0 0.0 0
M  V30 12 C 4.3301 2.9999 0.0 0
M  V30 13 O 0.866 1.0 0.0 0
M  V30 14 O 0.0 -0.5 0.0 0
M  V30 END ATOM
M  V30 BEGIN BOND
M  V30 1 2 1 2
M  V30 2 1 2 3
M  V30 3 1 2 4
M  V30 4 1 3 5
M  V30 5 2 4 6
M  V30 6 1 4 7
M  V30 7 1 5 8
M  V30 8 1 6 9
M  V30 9 2 7 10
M  V30 10 1 8 11
M  V30 11 2 9 12
M  V30 12 2 11 13
M  V30 13 1 11 14
M  V30 14 1 10 12
M  V30 END BOND
M  V30 END CTAB
M  END
>  <Column 1>
170

>  <Column 2>
PandemicResponseBox - Plate C

>  <Column 3>
B03

>  <Column 4>
MMV002224

>  <Column 5>
10 mM

>  <Column 6>
ANTIBACTERIALS

>  <Column 7>


>  <Column 8>
None

>  <Column 9>
Betamipron

>  <Column 10>
OC(=O)CCNC(=O)c1ccccc1

>  <Column 11>
CHEMBL1231530

>  <Column 12>


>  <Column 13>
193.2

>  <Column 14>
C10H11NO3

>  <Tox-Glu>
ATCTOX

>  <Column 15>


>  <Column 16>
99 

>  <Column 17>
92 

>  <Column 18>
97 

>  <Column 19>


>  <Tox-Gal>
CTOXGAL

>  <Column 20>


>  <Column 21>
100 

>  <Column 22>
89 

>  <Column 23>
97 

>  <Column 24>


>  <Column 25>


>  <PAMPA>
PAMPA

>  <Column 26>
2

>  <Column 27>


>  <Column 28>


>  <Mouse>
ATMETMOU

>  <Column 29>


>  <Column 30>
Not determined; Low sensitivity

$$$$
Compound 172
Actelion Java MolfileCreator 2.0

  0  0  0  0  0  0              0 V3000
M  V30 BEGIN CTAB
M  V30 COUNTS 26 29 0 0 0
M  V30 BEGIN ATOM
M  V30 1 F 3.4641 -4.4999 0.0 0
M  V30 2 C 3.4641 -3.4999 0.0 0
M  V30 3 C 4.3301 -3.0 0.0 0
M  V30 4 C 2.598 -2.9999 0.0 0
M  V30 5 N 5.1961 -3.5 0.0 0
M  V30 6 C 4.3301 -1.9999 0.0 0
M  V30 7 C 2.598 -2.0 0.0 0
M  V30 8 C 5.1961 -4.5 0.0 0
M  V30 9 C 6.0621 -3.0 0.0 0
M  V30 10 C 3.4641 -1.5 0.0 0
M  V30 11 C 5.1961 -1.4999 0.0 0
M  V30 12 C 1.732 -1.5 0.0 0
M  V30 13 C 6.0621 -5.0 0.0 0
M  V30 14 C 6.9282 -3.5 0.0 0
M  V30 15 N 3.4641 -0.5 0.0 0
M  V30 16 C 5.1961 -0.5 0.0 0
M  V30 17 O 0.866 -2.0 0.0 0
M  V30 18 C 1.732 -0.5 0.0 0
M  V30 19 C 6.9282 -4.5 0.0 0
M  V30 20 C 2.598 0.0 0.0 0
M  V30 21 C 4.3301 0.0 0.0 0 CFG=2
M  V30 22 C 0.866 0.0 0.0 0
M  V30 23 O 7.7942 -5.0 0.0 0
M  V30 24 C 4.3301 0.9999 0.0 0
M  V30 25 O 0.866 1.0 0.0 0
M  V30 26 O 0.0 -0.5 0.0 0
M  V30 END ATOM
M  V30 BEGIN BOND
M  V30 1 1 1 2
M  V30 2 2 2 3
M  V30 3 1 2 4
M  V30 4 1 3 5
M  V30 5 1 3 6
M  V30 6 2 4 7
M  V30 7 1 5 8
M  V30 8 1 5 9
M  V30 9 2 6 10
M  V30 10 1 6 11
M  V30 11 1 7 12
M  V30 12 1 8 13
M  V30 13 1 9 14
M  V30 14 1 10 15
M  V30 15 1 11 16
M  V30 16 2 12 17
M  V30 17 1 12 18
M  V30 18 1 13 19
M  V30 19 1 15 20
M  V30 20 1 21 15
M  V30 21 1 18 22
M  V30 22 1 19 23
M  V30 23 1 21 24 CFG=1
M  V30 24 2 22 25
M  V30 25 1 22 26
M  V30 26 1 7 10
M  V30 27 1 14 19
M  V30 28 1 16 21
M  V30 29 2 18 20
M  V30 END BOND
M  V30 BEGIN COLLECTION
M  V30 MDLV30/STERAC1 ATOMS=(1 21)
M  V30 END COLLECTION
M  V30 END CTAB
M  END
>  <Column 1>
171

>  <Column 2>
PandemicResponseBox - Plate C

>  <Column 3>
C03

>  <Column 4>
MMV637659

>  <Column 5>
10 mM

>  <Column 6>
ANTIBACTERIALS

>  <Column 7>


>  <Column 8>
None

>  <Column 9>
Nadifloxacin

>  <Column 10>
CC1CCc2c(N3CCC(O)CC3)c(F)cc4C(=O)C(=CN1c24)C(=O)O

>  <Column 11>
CHEMBL190561

>  <Column 12>


>  <Column 13>
360.4

>  <Column 14>
C19H21FN2O4

>  <Tox-Glu>
ATCTOX

>  <Column 15>


>  <Column 16>
95 

>  <Column 17>
102 

>  <Column 18>
100 

>  <Column 19>


>  <Tox-Gal>
CTOXGAL

>  <Column 20>


>  <Column 21>
98 

>  <Column 22>
88 

>  <Column 23>
98 

>  <Column 24>


>  <Column 25>


>  <PAMPA>
PAMPA

>  <Column 26>
75

>  <Column 27>


>  <Column 28>


>  <Mouse>
ATMETMOU

>  <Column 29>
7

>  <Column 30>


$$$$
Compound 173
Actelion Java MolfileCreator 2.0

  0  0  0  0  0  0              0 V3000
M  V30 BEGIN CTAB
M  V30 COUNTS 21 21 0 0 0
M  V30 BEGIN ATOM
M  V30 1 S 6.0621 0.0 0.0 0
M  V30 2 C 6.9282 -0.5 0.0 0
M  V30 3 C 5.1961 -0.5 0.0 0
M  V30 4 C 6.9282 -1.5 0.0 0
M  V30 5 C 7.7942 0.0 0.0 0
M  V30 6 O 5.1961 -1.4999 0.0 0
M  V30 7 N 4.3301 0.0 0.0 0
M  V30 8 C 7.7942 -2.0 0.0 0
M  V30 9 C 8.6602 -0.5 0.0 0
M  V30 10 C 3.4641 -0.5 0.0 0 CFG=1
M  V30 11 C 8.6602 -1.4999 0.0 0
M  V30 12 C 3.4641 -1.5 0.0 0
M  V30 13 C 2.598 0.0 0.0 0
M  V30 14 O 9.5262 -2.0 0.0 0
M  V30 15 O 2.598 -1.9999 0.0 0
M  V30 16 O 4.3301 -2.0 0.0 0
M  V30 17 C 1.732 -0.5 0.0 0
M  V30 18 C 10.3923 -1.5 0.0 0
M  V30 19 C 0.866 0.0 0.0 0
M  V30 20 O 0.866 1.0 0.0 0
M  V30 21 O 0.0 -0.5 0.0 0
M  V30 END ATOM
M  V30 BEGIN BOND
M  V30 1 1 1 2
M  V30 2 1 1 3
M  V30 3 2 2 4
M  V30 4 1 2 5
M  V30 5 2 3 6
M  V30 6 1 3 7
M  V30 7 1 4 8
M  V30 8 2 5 9
M  V30 9 1 10 7 CFG=1
M  V30 10 2 8 11
M  V30 11 1 10 12
M  V30 12 1 10 13
M  V30 13 1 11 14
M  V30 14 2 12 15
M  V30 15 1 12 16
M  V30 16 1 13 17
M  V30 17 1 14 18
M  V30 18 1 17 19
M  V30 19 2 19 20
M  V30 20 1 19 21
M  V30 21 1 9 11
M  V30 END BOND
M  V30 BEGIN COLLECTION
M  V30 MDLV30/STEABS ATOMS=(1 10)
M  V30 END COLLECTION
M  V30 END CTAB
M  END
>  <Column 1>
172

>  <Column 2>
PandemicResponseBox - Plate C

>  <Column 3>
D03

>  <Column 4>
MMV1580846

>  <Column 5>
10 mM

>  <Column 6>
ANTIBACTERIALS

>  <Column 7>


>  <Column 8>
None

>  <Column 9>


>  <Column 10>
COc1ccc(SC(=O)N[C@H](CCC(=O)O)C(=O)O)cc1

>  <Column 11>
CHEMBL176541

>  <Column 12>


>  <Column 13>
313.3

>  <Column 14>
C13 H15 N O6 S

>  <Tox-Glu>
ATCTOX

>  <Column 15>


>  <Column 16>
97 

>  <Column 17>
97 

>  <Column 18>
56 

>  <Column 19>


>  <Tox-Gal>
CTOXGAL

>  <Column 20>


>  <Column 21>
98 

>  <Column 22>
91 

>  <Column 23>
58 

>  <Column 24>


>  <Column 25>


>  <PAMPA>
PAMPA

>  <Column 26>
undetected

>  <Column 27>
low sensitivity

>  <Column 28>


>  <Mouse>
ATMETMOU

>  <Column 29>


>  <Column 30>
Not determined; Low sensitivity

$$$$
Compound 174
Actelion Java MolfileCreator 2.0

  0  0  0  0  0  0              0 V3000
M  V30 BEGIN CTAB
M  V30 COUNTS 20 20 0 0 0
M  V30 BEGIN ATOM
M  V30 1 O 6.9282 -0.5 0.0 0
M  V30 2 C 6.0621 0.0 0.0 0
M  V30 3 O 6.0621 0.9999 0.0 0
M  V30 4 C 5.1961 -0.5 0.0 0 CFG=2
M  V30 5 N 4.3301 0.0 0.0 0
M  V30 6 C 5.1961 -1.5 0.0 0
M  V30 7 C 3.4641 -0.5 0.0 0
M  V30 8 C 6.0621 -2.0 0.0 0
M  V30 9 O 3.4641 -1.5 0.0 0
M  V30 10 C 2.598 0.0 0.0 0 CFG=2
M  V30 11 C 6.0621 -3.0 0.0 0
M  V30 12 C 6.9282 -1.5 0.0 0
M  V30 13 N 1.732 -0.5 0.0 0
M  V30 14 C 2.598 1.0 0.0 0
M  V30 15 C 6.9282 -3.5 0.0 0
M  V30 16 C 7.7942 -2.0 0.0 0
M  V30 17 C 0.866 0.0 0.0 0
M  V30 18 C 7.7942 -3.0 0.0 0
M  V30 19 O 0.866 1.0 0.0 0
M  V30 20 C 0.0 -0.5 0.0 0
M  V30 END ATOM
M  V30 BEGIN BOND
M  V30 1 2 1 2
M  V30 2 1 2 3
M  V30 3 1 4 2
M  V30 4 1 4 5 CFG=1
M  V30 5 1 4 6
M  V30 6 1 5 7
M  V30 7 1 6 8
M  V30 8 2 7 9
M  V30 9 1 10 7
M  V30 10 2 8 11
M  V30 11 1 8 12
M  V30 12 1 10 13 CFG=3
M  V30 13 1 10 14
M  V30 14 1 11 15
M  V30 15 2 12 16
M  V30 16 1 13 17
M  V30 17 2 15 18
M  V30 18 2 17 19
M  V30 19 1 17 20
M  V30 20 1 16 18
M  V30 END BOND
M  V30 BEGIN COLLECTION
M  V30 MDLV30/STEABS ATOMS=(2 4 10)
M  V30 END COLLECTION
M  V30 END CTAB
M  END
>  <Column 1>
173

>  <Column 2>
PandemicResponseBox - Plate C

>  <Column 3>
E03

>  <Column 4>
MMV1580845

>  <Column 5>
10 mM

>  <Column 6>
ANTIBACTERIALS

>  <Column 7>


>  <Column 8>
None

>  <Column 9>


>  <Column 10>
C[C@@H](NC(=O)C)C(=O)N[C@H](Cc1ccccc1)C(=O)O

>  <Column 11>
CHEMBL170888

>  <Column 12>


>  <Column 13>
278.3

>  <Column 14>
C14 H18 N2 O4

>  <Tox-Glu>
ATCTOX

>  <Column 15>


>  <Column 16>
100 

>  <Column 17>
102 

>  <Column 18>
102 

>  <Column 19>


>  <Tox-Gal>
CTOXGAL

>  <Column 20>


>  <Column 21>
99 

>  <Column 22>
89 

>  <Column 23>
100 

>  <Column 24>


>  <Column 25>


>  <PAMPA>
PAMPA

>  <Column 26>
undetected

>  <Column 27>
low sensitivity

>  <Column 28>


>  <Mouse>
ATMETMOU

>  <Column 29>


>  <Column 30>
Not determined; Low sensitivity

$$$$
Compound 175
Actelion Java MolfileCreator 2.0

  0  0  0  0  0  0              0 V3000
M  V30 BEGIN CTAB
M  V30 COUNTS 28 32 0 0 0
M  V30 BEGIN ATOM
M  V30 1 Cl 5.1961 -1.5 0.0 0
M  V30 2 C 4.3301 -2.0 0.0 0
M  V30 3 C 3.4641 -1.5 0.0 0
M  V30 4 C 4.3301 -3.0 0.0 0
M  V30 5 N 3.4641 -0.5 0.0 0
M  V30 6 C 2.598 -2.0 0.0 0
M  V30 7 N 5.1961 -3.5 0.0 0
M  V30 8 C 3.4641 -3.5 0.0 0
M  V30 9 C 2.598 0.0 0.0 0
M  V30 10 C 4.3301 0.0 0.0 0 CFG=1
M  V30 11 C 1.732 -1.5 0.0 0
M  V30 12 C 2.598 -3.0 0.0 0
M  V30 13 C 5.3006 -4.4945 0.0 0
M  V30 14 C 6.1096 -3.0932 0.0 0
M  V30 15 F 3.4641 -4.5 0.0 0
M  V30 16 C 1.732 -0.5 0.0 0
M  V30 17 C 5.3301 0.0 0.0 0 CFG=2
M  V30 18 C 4.8301 0.866 0.0 0
M  V30 19 O 0.866 -1.9999 0.0 0
M  V30 20 C 6.2788 -4.7024 0.0 0
M  V30 21 C 6.7788 -3.8364 0.0 0 CFG=2
M  V30 22 C 0.866 0.0 0.0 0
M  V30 23 F 6.1961 -0.5 0.0 0
M  V30 24 C 6.1743 -5.6969 0.0 0
M  V30 25 C 7.0878 -5.2902 0.0 0
M  V30 26 N 7.7733 -3.7318 0.0 0
M  V30 27 O 0.866 1.0 0.0 0
M  V30 28 O 0.0 -0.5 0.0 0
M  V30 END ATOM
M  V30 BEGIN BOND
M  V30 1 1 1 2
M  V30 2 2 2 3
M  V30 3 1 2 4
M  V30 4 1 3 5
M  V30 5 1 3 6
M  V30 6 1 4 7
M  V30 7 2 4 8
M  V30 8 1 5 9
M  V30 9 1 10 5 CFG=3
M  V30 10 1 6 11
M  V30 11 2 6 12
M  V30 12 1 7 13
M  V30 13 1 7 14
M  V30 14 1 8 15
M  V30 15 2 9 16
M  V30 16 1 17 10
M  V30 17 1 10 18
M  V30 18 2 11 19
M  V30 19 1 13 20
M  V30 20 1 21 14
M  V30 21 1 16 22
M  V30 22 1 17 23 CFG=3
M  V30 23 1 20 24
M  V30 24 1 20 25
M  V30 25 1 21 26 CFG=1
M  V30 26 2 22 27
M  V30 27 1 22 28
M  V30 28 1 8 12
M  V30 29 1 11 16
M  V30 30 1 17 18
M  V30 31 1 20 21
M  V30 32 1 24 25
M  V30 END BOND
M  V30 BEGIN COLLECTION
M  V30 MDLV30/STEABS ATOMS=(3 10 17 21)
M  V30 END COLLECTION
M  V30 END CTAB
M  END
>  <Column 1>
174

>  <Column 2>
PandemicResponseBox - Plate C

>  <Column 3>
F03

>  <Column 4>
MMV1579850

>  <Column 5>
10 mM

>  <Column 6>
ANTIBACTERIALS

>  <Column 7>


>  <Column 8>
None

>  <Column 9>
Sitafloxacin

>  <Column 10>
N[C@@H]1CN(CC12CC2)c3c(F)cc4C(=O)C(=CN([C@@H]5C[C@@H]5F)c4c3Cl)C(=O)O

>  <Column 11>
CHEMBL108821

>  <Column 12>


>  <Column 13>
409.8

>  <Column 14>
C19 H18 Cl F2 N3 O3

>  <Tox-Glu>
ATCTOX

>  <Column 15>


>  <Column 16>
102 

>  <Column 17>
99 

>  <Column 18>
95 

>  <Column 19>


>  <Tox-Gal>
CTOXGAL

>  <Column 20>


>  <Column 21>
100 

>  <Column 22>
88 

>  <Column 23>
96 

>  <Column 24>


>  <Column 25>


>  <PAMPA>
PAMPA

>  <Column 26>
undetected

>  <Column 27>
low sensitivity

>  <Column 28>


>  <Mouse>
ATMETMOU

>  <Column 29>
-10

>  <Column 30>
Low sensitivity

$$$$
Compound 176
Actelion Java MolfileCreator 2.0

  0  0  0  0  0  0              0 V3000
M  V30 BEGIN CTAB
M  V30 COUNTS 20 22 0 0 0
M  V30 BEGIN ATOM
M  V30 1 O 2.598 0.0 0.0 0
M  V30 2 C 1.732 -0.5 0.0 0
M  V30 3 N 0.866 0.0 0.0 0
M  V30 4 C 1.732 -1.5 0.0 0
M  V30 5 C 0.0 -0.5 0.0 0
M  V30 6 N 0.923 -2.0877 0.0 0
M  V30 7 C 2.541 -2.0877 0.0 0
M  V30 8 C -0.866 0.0 0.0 0
M  V30 9 C 0.0 -1.4999 0.0 0
M  V30 10 N 1.232 -3.0388 0.0 0
M  V30 11 C 2.232 -3.0388 0.0 0
M  V30 12 C -1.732 -0.4999 0.0 0
M  V30 13 C -0.866 -1.9999 0.0 0
M  V30 14 C 0.732 -3.9048 0.0 0
M  V30 15 C 2.732 -3.9048 0.0 0
M  V30 16 C -1.732 -1.4999 0.0 0
M  V30 17 C 1.232 -4.7708 0.0 0
M  V30 18 C 2.232 -4.7708 0.0 0
M  V30 19 O -2.598 -1.9999 0.0 0
M  V30 20 C -2.598 -2.9999 0.0 0
M  V30 END ATOM
M  V30 BEGIN BOND
M  V30 1 2 1 2
M  V30 2 1 2 3
M  V30 3 1 2 4
M  V30 4 1 3 5
M  V30 5 2 4 6
M  V30 6 1 4 7
M  V30 7 2 5 8
M  V30 8 1 5 9
M  V30 9 1 6 10
M  V30 10 2 7 11
M  V30 11 1 8 12
M  V30 12 2 9 13
M  V30 13 1 10 14
M  V30 14 1 11 15
M  V30 15 2 12 16
M  V30 16 2 14 17
M  V30 17 2 15 18
M  V30 18 1 16 19
M  V30 19 1 19 20
M  V30 20 1 10 11
M  V30 21 1 13 16
M  V30 22 1 17 18
M  V30 END BOND
M  V30 END CTAB
M  END
>  <Column 1>
175

>  <Column 2>
PandemicResponseBox - Plate C

>  <Column 3>
G03

>  <Column 4>
MMV374187

>  <Column 5>
10 mM

>  <Column 6>
ANTIBACTERIALS

>  <Column 7>


>  <Column 8>
None

>  <Column 9>


>  <Column 10>
COc1ccc(NC(=O)c2cc3ccccn3n2)cc1

>  <Column 11>
CHEMBL1352955

>  <Column 12>


>  <Column 13>
267.3

>  <Column 14>
C15H13N3O2

>  <Tox-Glu>
ATCTOX

>  <Column 15>


>  <Column 16>
106 

>  <Column 17>
94 

>  <Column 18>
61 

>  <Column 19>


>  <Tox-Gal>
CTOXGAL

>  <Column 20>


>  <Column 21>
101 

>  <Column 22>
84 

>  <Column 23>
54 

>  <Column 24>


>  <Column 25>


>  <PAMPA>
PAMPA

>  <Column 26>
329

>  <Column 27>


>  <Column 28>


>  <Mouse>
ATMETMOU

>  <Column 29>
>768

>  <Column 30>
Low sensitivity

$$$$
Compound 177
Actelion Java MolfileCreator 2.0

  0  0  0  0  0  0              0 V3000
M  V30 BEGIN CTAB
M  V30 COUNTS 22 23 0 0 0
M  V30 BEGIN ATOM
M  V30 1 Cl 6.9282 1.4999 0.0 0
M  V30 2 C 6.0621 0.9999 0.0 0
M  V30 3 C 6.0621 0.0 0.0 0
M  V30 4 C 5.1961 1.5 0.0 0
M  V30 5 C 5.1961 -0.5 0.0 0
M  V30 6 C 4.3301 0.9999 0.0 0
M  V30 7 C 4.3301 0.0 0.0 0
M  V30 8 C 5.1961 -1.5 0.0 0
M  V30 9 N 3.4641 -0.5 0.0 0
M  V30 10 O 6.0621 -2.0 0.0 0
M  V30 11 O 4.3301 -2.0 0.0 0
M  V30 12 C 2.598 0.0 0.0 0
M  V30 13 O 2.598 1.0 0.0 0
M  V30 14 C 1.732 -0.5 0.0 0 CFG=2
M  V30 15 C 0.866 0.0 0.0 0
M  V30 16 C 1.732 -1.5 0.0 0
M  V30 17 C 0.0 -0.5 0.0 0
M  V30 18 C -0.866 0.0 0.0 0
M  V30 19 C 0.0 -1.4999 0.0 0
M  V30 20 C -1.732 -0.4999 0.0 0
M  V30 21 C -0.866 -1.9999 0.0 0
M  V30 22 C -1.732 -1.4999 0.0 0
M  V30 END ATOM
M  V30 BEGIN BOND
M  V30 1 1 1 2
M  V30 2 2 2 3
M  V30 3 1 2 4
M  V30 4 1 3 5
M  V30 5 2 4 6
M  V30 6 2 5 7
M  V30 7 1 5 8
M  V30 8 1 7 9
M  V30 9 2 8 10
M  V30 10 1 8 11
M  V30 11 1 9 12
M  V30 12 2 12 13
M  V30 13 1 14 12
M  V30 14 1 14 15
M  V30 15 1 14 16 CFG=1
M  V30 16 1 15 17
M  V30 17 2 17 18
M  V30 18 1 17 19
M  V30 19 1 18 20
M  V30 20 2 19 21
M  V30 21 2 20 22
M  V30 22 1 6 7
M  V30 23 1 21 22
M  V30 END BOND
M  V30 BEGIN COLLECTION
M  V30 MDLV30/STERAC1 ATOMS=(1 14)
M  V30 END COLLECTION
M  V30 END CTAB
M  END
>  <Column 1>
176

>  <Column 2>
PandemicResponseBox - Plate C

>  <Column 3>
H03

>  <Column 4>
MMV1579781

>  <Column 5>
10 mM

>  <Column 6>
ANTIBACTERIALS

>  <Column 7>


>  <Column 8>
None

>  <Column 9>


>  <Column 10>
CC(Cc1ccccc1)C(=O)Nc2ccc(Cl)cc2C(=O)O

>  <Column 11>
CHEMBL373194

>  <Column 12>


>  <Column 13>
317.8

>  <Column 14>
C17 H16 Cl N O3

>  <Tox-Glu>
ATCTOX

>  <Column 15>


>  <Column 16>
102 

>  <Column 17>
101 

>  <Column 18>
91 

>  <Column 19>


>  <Tox-Gal>
CTOXGAL

>  <Column 20>


>  <Column 21>
103 

>  <Column 22>
87 

>  <Column 23>
86 

>  <Column 24>


>  <Column 25>


>  <PAMPA>
PAMPA

>  <Column 26>
40

>  <Column 27>


>  <Column 28>


>  <Mouse>
ATMETMOU

>  <Column 29>
148

>  <Column 30>


$$$$
Compound 178
Actelion Java MolfileCreator 2.0

  0  0  0  0  0  0              0 V3000
M  V30 BEGIN CTAB
M  V30 COUNTS 28 31 0 0 0
M  V30 BEGIN ATOM
M  V30 1 N 2.598 0.9999 0.0 0
M  V30 2 C 2.598 0.0 0.0 0
M  V30 3 C 3.4641 1.4999 0.0 0
M  V30 4 N 3.4641 -0.4999 0.0 0
M  V30 5 N 1.732 -0.5 0.0 0
M  V30 6 N 3.4641 2.5 0.0 0
M  V30 7 C 4.3301 1.0 0.0 0
M  V30 8 C 4.3301 0.0 0.0 0
M  V30 9 C 0.866 0.0 0.0 0
M  V30 10 C 4.3301 3.0 0.0 0
M  V30 11 N 5.2811 1.309 0.0 0
M  V30 12 N 5.2811 -0.309 0.0 0
M  V30 13 C 0.0 -0.5 0.0 0
M  V30 14 C 4.3301 4.0 0.0 0
M  V30 15 C 5.8689 0.5 0.0 0
M  V30 16 C 5.5902 -1.26 0.0 0
M  V30 17 C -0.866 0.0 0.0 0
M  V30 18 C 0.0 -1.4999 0.0 0
M  V30 19 C 5.1961 4.5 0.0 0
M  V30 20 C 3.4641 4.5 0.0 0
M  V30 21 C 4.921 -2.0032 0.0 0
M  V30 22 C 6.5683 -1.4679 0.0 0
M  V30 23 C -1.732 -0.4999 0.0 0
M  V30 24 C -0.866 -1.9999 0.0 0
M  V30 25 C 5.1961 5.5 0.0 0
M  V30 26 C 3.4641 5.5 0.0 0
M  V30 27 C -1.732 -1.4999 0.0 0
M  V30 28 C 4.3301 6.0 0.0 0
M  V30 END ATOM
M  V30 BEGIN BOND
M  V30 1 2 1 2
M  V30 2 1 1 3
M  V30 3 1 2 4
M  V30 4 1 2 5
M  V30 5 1 3 6
M  V30 6 2 3 7
M  V30 7 2 4 8
M  V30 8 1 5 9
M  V30 9 1 6 10
M  V30 10 1 7 11
M  V30 11 1 8 12
M  V30 12 1 9 13
M  V30 13 1 10 14
M  V30 14 2 11 15
M  V30 15 1 12 16
M  V30 16 2 13 17
M  V30 17 1 13 18
M  V30 18 2 14 19
M  V30 19 1 14 20
M  V30 20 1 16 21
M  V30 21 1 16 22
M  V30 22 1 17 23
M  V30 23 2 18 24
M  V30 24 1 19 25
M  V30 25 2 20 26
M  V30 26 2 23 27
M  V30 27 2 25 28
M  V30 28 1 7 8
M  V30 29 1 12 15
M  V30 30 1 24 27
M  V30 31 1 26 28
M  V30 END BOND
M  V30 END CTAB
M  END
>  <Column 1>
177

>  <Column 2>
PandemicResponseBox - Plate C

>  <Column 3>
A04

>  <Column 4>
MMV1579780

>  <Column 5>
10 mM

>  <Column 6>
ANTIBACTERIALS

>  <Column 7>


>  <Column 8>
None

>  <Column 9>


>  <Column 10>
CC(C)n1cnc2c(NCc3ccccc3)nc(NCc4ccccc4)nc12

>  <Column 11>
CHEMBL1428343

>  <Column 12>


>  <Column 13>
372.5

>  <Column 14>
C22 H24 N6

>  <Tox-Glu>
ATCTOX

>  <Column 15>


>  <Column 16>
97 

>  <Column 17>
18 

>  <Column 18>
28 

>  <Column 19>


>  <Tox-Gal>
CTOXGAL

>  <Column 20>


>  <Column 21>
92 

>  <Column 22>
1 

>  <Column 23>
2 

>  <Column 24>


>  <Column 25>


>  <PAMPA>
PAMPA

>  <Column 26>
274

>  <Column 27>


>  <Column 28>


>  <Mouse>
ATMETMOU

>  <Column 29>
719

>  <Column 30>


$$$$
Compound 179
Actelion Java MolfileCreator 2.0

  0  0  0  0  0  0              0 V3000
M  V30 BEGIN CTAB
M  V30 COUNTS 24 26 0 0 0
M  V30 BEGIN ATOM
M  V30 1 S 10.4807 -10.7755 0.0 0
M  V30 2 C 11.3624 -9.562 0.0 0
M  V30 3 C 8.989 -10.6187 0.0 0
M  V30 4 C 10.7523 -8.1917 0.0 0
M  V30 5 C 8.3789 -9.2484 0.0 0
M  V30 6 N 9.2605 -8.0349 0.0 0
M  V30 7 C 8.6504 -6.6646 0.0 0
M  V30 8 C 9.5321 -5.451 0.0 0
M  V30 9 C 7.1586 -6.5078 0.0 0
M  V30 10 F 11.0239 -5.6078 0.0 0
M  V30 11 C 8.922 -4.0807 0.0 0
M  V30 12 C 6.5485 -5.1374 0.0 0
M  V30 13 C 7.4302 -3.9239 0.0 0
M  V30 14 N 6.8201 -2.5536 0.0 0
M  V30 15 C 7.5701 -1.2546 0.0 0
M  V30 16 C 5.3529 -2.2417 0.0 0
M  V30 17 O 9.0619 -1.0978 0.0 0
M  V30 18 O 6.5664 -0.1398 0.0 0
M  V30 19 C 5.1961 -0.75 0.0 0 CFG=1
M  V30 20 C 3.8971 0.0 0.0 0
M  V30 21 N 2.598 -0.75 0.0 0
M  V30 22 C 1.299 0.0 0.0 0
M  V30 23 O 1.299 1.5 0.0 0
M  V30 24 C 0.0 -0.75 0.0 0
M  V30 END ATOM
M  V30 BEGIN BOND
M  V30 1 1 1 2
M  V30 2 1 1 3
M  V30 3 1 2 4
M  V30 4 1 3 5
M  V30 5 1 4 6
M  V30 6 1 6 7
M  V30 7 2 7 8
M  V30 8 1 7 9
M  V30 9 1 8 10
M  V30 10 1 8 11
M  V30 11 2 9 12
M  V30 12 2 11 13
M  V30 13 1 13 14
M  V30 14 1 14 15
M  V30 15 1 14 16
M  V30 16 2 15 17
M  V30 17 1 15 18
M  V30 18 1 19 16
M  V30 19 1 19 20 CFG=3
M  V30 20 1 20 21
M  V30 21 1 21 22
M  V30 22 2 22 23
M  V30 23 1 22 24
M  V30 24 1 5 6
M  V30 25 1 12 13
M  V30 26 1 18 19
M  V30 END BOND
M  V30 BEGIN COLLECTION
M  V30 MDLV30/STEABS ATOMS=(1 19)
M  V30 END COLLECTION
M  V30 END CTAB
M  END
>  <Column 1>
178

>  <Column 2>
PandemicResponseBox - Plate C

>  <Column 3>
B04

>  <Column 4>
MMV688756

>  <Column 5>
10 mM

>  <Column 6>
ANTIBACTERIALS

>  <Column 7>


>  <Column 8>
None

>  <Column 9>
Sutezolid

>  <Column 10>
CC(=O)NC[C@H]1CN(C(=O)O1)c2ccc(N3CCSCC3)c(F)c2

>  <Column 11>
CHEMBL288149

>  <Column 12>


>  <Column 13>
353.4

>  <Column 14>
C16 H20 F N3 O3 S

>  <Tox-Glu>
ATCTOX

>  <Column 15>


>  <Column 16>
108 

>  <Column 17>
104 

>  <Column 18>
105 

>  <Column 19>


>  <Tox-Gal>
CTOXGAL

>  <Column 20>


>  <Column 21>
102 

>  <Column 22>
93 

>  <Column 23>
99 

>  <Column 24>


>  <Column 25>


>  <PAMPA>
PAMPA

>  <Column 26>
111

>  <Column 27>


>  <Column 28>


>  <Mouse>
ATMETMOU

>  <Column 29>
81

>  <Column 30>


$$$$
Compound 180
Actelion Java MolfileCreator 2.0

  0  0  0  0  0  0              0 V3000
M  V30 BEGIN CTAB
M  V30 COUNTS 18 19 0 0 0
M  V30 BEGIN ATOM
M  V30 1 Cl 3.4641 2.5 0.0 0
M  V30 2 C 3.4641 1.5 0.0 0
M  V30 3 C 2.598 1.0 0.0 0
M  V30 4 C 4.3301 1.0 0.0 0
M  V30 5 C 2.598 0.0 0.0 0
M  V30 6 C 4.3301 0.0 0.0 0
M  V30 7 C 3.4641 -0.4999 0.0 0
M  V30 8 C 1.732 -0.5 0.0 0
M  V30 9 O 3.4641 -1.5 0.0 0
M  V30 10 O 1.732 -1.5 0.0 0
M  V30 11 N 0.866 0.0 0.0 0
M  V30 12 C 0.0 -0.5 0.0 0
M  V30 13 C -0.866 0.0 0.0 0
M  V30 14 C 0.0 -1.4999 0.0 0
M  V30 15 C -1.732 -0.4999 0.0 0
M  V30 16 C -0.866 -1.9999 0.0 0
M  V30 17 C -1.732 -1.4999 0.0 0
M  V30 18 C -2.598 -1.9999 0.0 0
M  V30 END ATOM
M  V30 BEGIN BOND
M  V30 1 1 1 2
M  V30 2 2 2 3
M  V30 3 1 2 4
M  V30 4 1 3 5
M  V30 5 2 4 6
M  V30 6 2 5 7
M  V30 7 1 5 8
M  V30 8 1 7 9
M  V30 9 2 8 10
M  V30 10 1 8 11
M  V30 11 1 11 12
M  V30 12 2 12 13
M  V30 13 1 12 14
M  V30 14 1 13 15
M  V30 15 2 14 16
M  V30 16 2 15 17
M  V30 17 1 17 18
M  V30 18 1 6 7
M  V30 19 1 16 17
M  V30 END BOND
M  V30 END CTAB
M  END
>  <Column 1>
179

>  <Column 2>
PandemicResponseBox - Plate C

>  <Column 3>
C04

>  <Column 4>
MMV1578897

>  <Column 5>
10 mM

>  <Column 6>
ANTIBACTERIALS

>  <Column 7>


>  <Column 8>
None

>  <Column 9>


>  <Column 10>
Cc1ccc(NC(=O)c2cc(Cl)ccc2O)cc1

>  <Column 11>
CHEMBL2437347

>  <Column 12>


>  <Column 13>
261.7

>  <Column 14>
C14 H12 Cl N O2

>  <Tox-Glu>
ATCTOX

>  <Column 15>


>  <Column 16>
59 

>  <Column 17>
47 

>  <Column 18>
34 

>  <Column 19>


>  <Tox-Gal>
CTOXGAL

>  <Column 20>


>  <Column 21>
0 

>  <Column 22>
0 

>  <Column 23>
1 

>  <Column 24>


>  <Column 25>


>  <PAMPA>
PAMPA

>  <Column 26>
63

>  <Column 27>


>  <Column 28>


>  <Mouse>
ATMETMOU

>  <Column 29>
>768

>  <Column 30>


$$$$
Compound 181
Actelion Java MolfileCreator 2.0

  0  0  0  0  0  0              0 V3000
M  V30 BEGIN CTAB
M  V30 COUNTS 27 29 0 0 0
M  V30 BEGIN ATOM
M  V30 1 Cl 2.098 0.866 0.0 0
M  V30 2 C 2.598 0.0 0.0 0
M  V30 3 Cl 3.4641 0.5 0.0 0
M  V30 4 Cl 3.098 -0.866 0.0 0
M  V30 5 C 1.732 -0.5 0.0 0
M  V30 6 O 1.732 -1.5 0.0 0
M  V30 7 N 0.866 0.0 0.0 0
M  V30 8 C 0.0 -0.5 0.0 0
M  V30 9 C -0.866 0.0 0.0 0
M  V30 10 C 0.0 -1.4999 0.0 0
M  V30 11 N -0.866 1.0 0.0 0
M  V30 12 C -1.732 -0.4999 0.0 0
M  V30 13 C -0.866 -1.9999 0.0 0
M  V30 14 C 0.0 1.4999 0.0 0
M  V30 15 C -1.732 1.5 0.0 0
M  V30 16 C -1.732 -1.4999 0.0 0
M  V30 17 C 0.0 2.4999 0.0 0
M  V30 18 C -1.732 2.5 0.0 0
M  V30 19 N -0.866 3.0 0.0 0
M  V30 20 C -0.866 4.0 0.0 0
M  V30 21 O 0.0 4.5 0.0 0
M  V30 22 C -1.732 4.5 0.0 0
M  V30 23 C -1.732 5.5 0.0 0
M  V30 24 C -2.598 4.0 0.0 0
M  V30 25 C -2.598 6.0 0.0 0
M  V30 26 C -3.4641 4.5 0.0 0
M  V30 27 C -3.4641 5.5 0.0 0
M  V30 END ATOM
M  V30 BEGIN BOND
M  V30 1 1 1 2
M  V30 2 1 2 3
M  V30 3 1 2 4
M  V30 4 1 2 5
M  V30 5 2 5 6
M  V30 6 1 5 7
M  V30 7 1 7 8
M  V30 8 2 8 9
M  V30 9 1 8 10
M  V30 10 1 9 11
M  V30 11 1 9 12
M  V30 12 2 10 13
M  V30 13 1 11 14
M  V30 14 1 11 15
M  V30 15 2 12 16
M  V30 16 1 14 17
M  V30 17 1 15 18
M  V30 18 1 17 19
M  V30 19 1 19 20
M  V30 20 2 20 21
M  V30 21 1 20 22
M  V30 22 2 22 23
M  V30 23 1 22 24
M  V30 24 1 23 25
M  V30 25 2 24 26
M  V30 26 2 25 27
M  V30 27 1 13 16
M  V30 28 1 18 19
M  V30 29 1 26 27
M  V30 END BOND
M  V30 END CTAB
M  END
>  <Column 1>
180

>  <Column 2>
PandemicResponseBox - Plate C

>  <Column 3>
D04

>  <Column 4>
MMV001014

>  <Column 5>
10 mM

>  <Column 6>
ANTIBACTERIALS

>  <Column 7>


>  <Column 8>
None

>  <Column 9>
GNF-Pf-4568

>  <Column 10>
ClC(Cl)(Cl)C(=O)Nc1ccccc1N2CCN(CC2)C(=O)c3ccccc3

>  <Column 11>
CHEMBL603037

>  <Column 12>


>  <Column 13>
426.7

>  <Column 14>
C19H18Cl3N3O2

>  <Tox-Glu>
ATCTOX

>  <Column 15>


>  <Column 16>
109 

>  <Column 17>
110 

>  <Column 18>
97 

>  <Column 19>


>  <Tox-Gal>
CTOXGAL

>  <Column 20>


>  <Column 21>
103 

>  <Column 22>
92 

>  <Column 23>
80 

>  <Column 24>


>  <Column 25>


>  <PAMPA>
PAMPA

>  <Column 26>
425

>  <Column 27>


>  <Column 28>


>  <Mouse>
ATMETMOU

>  <Column 29>


>  <Column 30>
Not determined; Low sensitivity

$$$$
Compound 182
Actelion Java MolfileCreator 2.0

  0  0  0  0  0  0              0 V3000
M  V30 BEGIN CTAB
M  V30 COUNTS 31 34 0 0 0
M  V30 BEGIN ATOM
M  V30 1 S 0.866 -1.9999 0.0 0
M  V30 2 C 0.866 -2.9999 0.0 0
M  V30 3 C 1.732 -1.5 0.0 0
M  V30 4 N 1.732 -3.5 0.0 0
M  V30 5 N 0.0 -3.4999 0.0 0
M  V30 6 C 1.732 -0.5 0.0 0
M  V30 7 C 2.598 -1.9999 0.0 0
M  V30 8 C 2.598 -3.0 0.0 0
M  V30 9 C -0.866 -2.9999 0.0 0
M  V30 10 C 0.0 -4.4999 0.0 0
M  V30 11 N 0.866 0.0 0.0 0 CHG=1 VAL=5
M  V30 12 C 2.598 0.0 0.0 0
M  V30 13 C 3.4641 -1.5 0.0 0
M  V30 14 O 3.4641 -3.5 0.0 0
M  V30 15 C -1.732 -3.4999 0.0 0
M  V30 16 C -0.866 -4.9999 0.0 0
M  V30 17 O 0.866 1.0 0.0 0
M  V30 18 O 0.0 -0.5 0.0 0 CHG=-1
M  V30 19 C 3.4641 -0.5 0.0 0
M  V30 20 N -1.732 -4.4999 0.0 0
M  V30 21 C 4.3301 0.0 0.0 0
M  V30 22 C -2.598 -4.9999 0.0 0
M  V30 23 F 3.8301 0.866 0.0 0
M  V30 24 F 5.1961 0.4999 0.0 0
M  V30 25 F 4.8301 -0.866 0.0 0
M  V30 26 C -2.598 -5.9999 0.0 0
M  V30 27 C -3.4641 -6.4999 0.0 0
M  V30 28 C -1.732 -6.4999 0.0 0
M  V30 29 C -3.4641 -7.4999 0.0 0
M  V30 30 C -1.732 -7.4999 0.0 0
M  V30 31 C -2.598 -7.9999 0.0 0
M  V30 END ATOM
M  V30 BEGIN BOND
M  V30 1 1 1 2
M  V30 2 1 1 3
M  V30 3 2 2 4
M  V30 4 1 2 5
M  V30 5 2 3 6
M  V30 6 1 3 7
M  V30 7 1 4 8
M  V30 8 1 5 9
M  V30 9 1 5 10
M  V30 10 1 6 11
M  V30 11 1 6 12
M  V30 12 2 7 13
M  V30 13 2 8 14
M  V30 14 1 9 15
M  V30 15 1 10 16
M  V30 16 2 11 17
M  V30 17 1 11 18
M  V30 18 2 12 19
M  V30 19 1 15 20
M  V30 20 1 19 21
M  V30 21 1 20 22
M  V30 22 1 21 23
M  V30 23 1 21 24
M  V30 24 1 21 25
M  V30 25 1 22 26
M  V30 26 1 26 27
M  V30 27 1 26 28
M  V30 28 1 27 29
M  V30 29 1 28 30
M  V30 30 1 29 31
M  V30 31 1 7 8
M  V30 32 1 13 19
M  V30 33 1 16 20
M  V30 34 1 30 31
M  V30 END BOND
M  V30 END CTAB
M  END
>  <Column 1>
181

>  <Column 2>
PandemicResponseBox - Plate C

>  <Column 3>
E04

>  <Column 4>
MMV1578885

>  <Column 5>
10 mM

>  <Column 6>
ANTIBACTERIALS

>  <Column 7>


>  <Column 8>
None

>  <Column 9>
PBTZ-169

>  <Column 10>
FC(F)(F)C1=CC(=C2SC(=N[C](=O)C2=C1)N3CCN(CC3)CC4CCCCC4)[N](=O)=O

>  <Column 11>
CHEMBL3330226

>  <Column 12>


>  <Column 13>
456.5

>  <Column 14>
C20 H23 F3 N4 O3 S

>  <Tox-Glu>
ATCTOX

>  <Column 15>


>  <Column 16>
108 

>  <Column 17>
108 

>  <Column 18>
106 

>  <Column 19>


>  <Tox-Gal>
CTOXGAL

>  <Column 20>


>  <Column 21>
102 

>  <Column 22>
94 

>  <Column 23>
102 

>  <Column 24>


>  <Column 25>


>  <PAMPA>
PAMPA

>  <Column 26>
335

>  <Column 27>


>  <Column 28>


>  <Mouse>
ATMETMOU

>  <Column 29>
104

>  <Column 30>
Low sensitivity

$$$$
Compound 183
Actelion Java MolfileCreator 2.0

  0  0  0  0  0  0              0 V3000
M  V30 BEGIN CTAB
M  V30 COUNTS 39 43 0 0 0
M  V30 BEGIN ATOM
M  V30 1 Cl 5.9738 2.0167 0.0 0
M  V30 2 C 5.6648 1.0657 0.0 0
M  V30 3 C 4.6866 0.8577 0.0 0
M  V30 4 C 6.3339 0.3225 0.0 0
M  V30 5 N 4.3776 -0.0932 0.0 0
M  V30 6 C 6.0249 -0.6284 0.0 0
M  V30 7 C 3.4641 -0.5 0.0 0
M  V30 8 C 5.0467 -0.8364 0.0 0
M  V30 9 C 3.5686 -1.4945 0.0 0
M  V30 10 C 2.598 0.0 0.0 0
M  V30 11 N 4.5467 -1.7024 0.0 0
M  V30 12 C 2.8254 -2.1636 0.0 0
M  V30 13 O 2.598 1.0 0.0 0
M  V30 14 N 1.732 -0.5 0.0 0
M  V30 15 C 3.0333 -3.1418 0.0 0
M  V30 16 C 0.866 0.0 0.0 0
M  V30 17 C 0.0 -0.5 0.0 0
M  V30 18 C -0.866 0.0 0.0 0
M  V30 19 C 0.0 -1.4999 0.0 0
M  V30 20 C -1.732 -0.4999 0.0 0
M  V30 21 C -0.866 -1.9999 0.0 0
M  V30 22 C -1.732 -1.4999 0.0 0
M  V30 23 N -2.598 -1.9999 0.0 0
M  V30 24 C -3.4641 -1.4999 0.0 0
M  V30 25 C -2.598 -2.9999 0.0 0
M  V30 26 C -4.3301 -1.9999 0.0 0
M  V30 27 C -3.4641 -3.4999 0.0 0
M  V30 28 C -4.3301 -2.9999 0.0 0
M  V30 29 C -5.1961 -3.4999 0.0 0
M  V30 30 C -6.0621 -2.9999 0.0 0
M  V30 31 C -5.1961 -4.4999 0.0 0
M  V30 32 C -6.9282 -3.4999 0.0 0
M  V30 33 C -6.0621 -4.9999 0.0 0
M  V30 34 C -6.9282 -4.4999 0.0 0
M  V30 35 O -7.7942 -4.9999 0.0 0
M  V30 36 C -7.7942 -5.9999 0.0 0
M  V30 37 F -6.7942 -5.9999 0.0 0
M  V30 38 F -7.7942 -6.9999 0.0 0
M  V30 39 F -8.7942 -5.9999 0.0 0
M  V30 END ATOM
M  V30 BEGIN BOND
M  V30 1 1 1 2
M  V30 2 2 2 3
M  V30 3 1 2 4
M  V30 4 1 3 5
M  V30 5 2 4 6
M  V30 6 1 5 7
M  V30 7 1 5 8
M  V30 8 2 7 9
M  V30 9 1 7 10
M  V30 10 2 8 11
M  V30 11 1 9 12
M  V30 12 2 10 13
M  V30 13 1 10 14
M  V30 14 1 12 15
M  V30 15 1 14 16
M  V30 16 1 16 17
M  V30 17 2 17 18
M  V30 18 1 17 19
M  V30 19 1 18 20
M  V30 20 2 19 21
M  V30 21 2 20 22
M  V30 22 1 22 23
M  V30 23 1 23 24
M  V30 24 1 23 25
M  V30 25 1 24 26
M  V30 26 1 25 27
M  V30 27 1 26 28
M  V30 28 1 28 29
M  V30 29 2 29 30
M  V30 30 1 29 31
M  V30 31 1 30 32
M  V30 32 2 31 33
M  V30 33 2 32 34
M  V30 34 1 34 35
M  V30 35 1 35 36
M  V30 36 1 36 37
M  V30 37 1 36 38
M  V30 38 1 36 39
M  V30 39 1 6 8
M  V30 40 1 9 11
M  V30 41 1 21 22
M  V30 42 1 27 28
M  V30 43 1 33 34
M  V30 END BOND
M  V30 END CTAB
M  END
>  <Column 1>
182

>  <Column 2>
PandemicResponseBox - Plate C

>  <Column 3>
F04

>  <Column 4>
MMV687696

>  <Column 5>
10 mM

>  <Column 6>
ANTIBACTERIALS

>  <Column 7>


>  <Column 8>
None

>  <Column 9>
Q203

>  <Column 10>
CCc1nc2ccc(Cl)cn2c1C(=O)NCc3ccc(cc3)N4CCC(CC4)c5ccc(OC(F)(F)F)cc5

>  <Column 11>
CHEMBL3298910

>  <Column 12>


>  <Column 13>
557

>  <Column 14>
C29 H28 Cl F3 N4 O2

>  <Tox-Glu>
ATCTOX

>  <Column 15>


>  <Column 16>
110 

>  <Column 17>
89 

>  <Column 18>
41 

>  <Column 19>


>  <Tox-Gal>
CTOXGAL

>  <Column 20>


>  <Column 21>
94 

>  <Column 22>
54 

>  <Column 23>
1 

>  <Column 24>


>  <Column 25>


>  <PAMPA>
PAMPA

>  <Column 26>
undetected

>  <Column 27>
low sensitivity

>  <Column 28>


>  <Mouse>
ATMETMOU

>  <Column 29>
31

>  <Column 30>


$$$$
Compound 184
Actelion Java MolfileCreator 2.0

  0  0  0  0  0  0              0 V3000
M  V30 BEGIN CTAB
M  V30 COUNTS 19 21 0 0 0
M  V30 BEGIN ATOM
M  V30 1 O 0.866 0.0 0.0 0
M  V30 2 C 1.732 -0.5 0.0 0
M  V30 3 C 0.0 -0.5 0.0 0
M  V30 4 C 1.732 -1.5 0.0 0
M  V30 5 C 2.598 0.0 0.0 0
M  V30 6 C 2.598 -2.0 0.0 0
M  V30 7 C 3.4641 -0.5 0.0 0
M  V30 8 C 2.598 -3.0 0.0 0
M  V30 9 C 3.4641 -1.5 0.0 0
M  V30 10 O 1.732 -3.5 0.0 0
M  V30 11 C 3.4641 -3.5 0.0 0
M  V30 12 N 4.3301 -2.0 0.0 0
M  V30 13 C 4.3301 -3.0 0.0 0
M  V30 14 C 5.1961 -3.5 0.0 0
M  V30 15 C 5.1961 -4.5 0.0 0
M  V30 16 C 6.0621 -3.0 0.0 0
M  V30 17 C 6.0621 -5.0 0.0 0
M  V30 18 C 6.9282 -3.5 0.0 0
M  V30 19 C 6.9282 -4.5 0.0 0
M  V30 END ATOM
M  V30 BEGIN BOND
M  V30 1 1 1 2
M  V30 2 1 1 3
M  V30 3 2 2 4
M  V30 4 1 2 5
M  V30 5 1 4 6
M  V30 6 2 5 7
M  V30 7 2 6 8
M  V30 8 1 6 9
M  V30 9 1 8 10
M  V30 10 1 8 11
M  V30 11 2 9 12
M  V30 12 2 11 13
M  V30 13 1 13 14
M  V30 14 2 14 15
M  V30 15 1 14 16
M  V30 16 1 15 17
M  V30 17 2 16 18
M  V30 18 2 17 19
M  V30 19 1 7 9
M  V30 20 1 12 13
M  V30 21 1 18 19
M  V30 END BOND
M  V30 END CTAB
M  END
>  <Column 1>
183

>  <Column 2>
PandemicResponseBox - Plate C

>  <Column 3>
G04

>  <Column 4>
MMV011565

>  <Column 5>
10 mM

>  <Column 6>
ANTIBACTERIALS

>  <Column 7>


>  <Column 8>
None

>  <Column 9>
GNF-Pf-117

>  <Column 10>
COc1ccc2nc(cc(O)c2c1)c3ccccc3

>  <Column 11>
CHEMBL14120

>  <Column 12>


>  <Column 13>
251.3

>  <Column 14>
C16H13NO2

>  <Tox-Glu>
ATCTOX

>  <Column 15>


>  <Column 16>
105 

>  <Column 17>
99 

>  <Column 18>
75 

>  <Column 19>


>  <Tox-Gal>
CTOXGAL

>  <Column 20>


>  <Column 21>
100 

>  <Column 22>
77 

>  <Column 23>
66 

>  <Column 24>


>  <Column 25>


>  <PAMPA>
PAMPA

>  <Column 26>
92

>  <Column 27>


>  <Column 28>


>  <Mouse>
ATMETMOU

>  <Column 29>
102

>  <Column 30>


$$$$
Compound 185
Actelion Java MolfileCreator 2.0

  0  0  0  0  0  0              0 V3000
M  V30 BEGIN CTAB
M  V30 COUNTS 25 28 0 0 0
M  V30 BEGIN ATOM
M  V30 1 O 3.4921 -1.7787 0.0 0
M  V30 2 C 2.541 -2.0877 0.0 0
M  V30 3 N 1.732 -1.5 0.0 0
M  V30 4 C 2.232 -3.0388 0.0 0
M  V30 5 C 0.923 -2.0877 0.0 0
M  V30 6 C 1.732 -0.5 0.0 0 CFG=2
M  V30 7 C 1.232 -3.0388 0.0 0
M  V30 8 C 2.732 -3.9048 0.0 0
M  V30 9 O -0.028 -1.7787 0.0 0
M  V30 10 C 2.598 0.0 0.0 0
M  V30 11 C 0.866 0.0 0.0 0
M  V30 12 C 0.732 -3.9048 0.0 0
M  V30 13 C 2.232 -4.7708 0.0 0
M  V30 14 O 3.4641 -0.5 0.0 0
M  V30 15 O 2.598 1.0 0.0 0
M  V30 16 C 0.866 0.9999 0.0 0
M  V30 17 C 1.232 -4.7708 0.0 0
M  V30 18 C 0.057 1.5877 0.0 0
M  V30 19 C 1.675 1.5877 0.0 0
M  V30 20 C 0.366 2.5388 0.0 0
M  V30 21 C -0.9211 1.3798 0.0 0
M  V30 22 N 1.366 2.5388 0.0 0
M  V30 23 C -0.3031 3.2819 0.0 0
M  V30 24 C -1.5902 2.123 0.0 0
M  V30 25 C -1.2812 3.074 0.0 0
M  V30 END ATOM
M  V30 BEGIN BOND
M  V30 1 2 1 2
M  V30 2 1 2 3
M  V30 3 1 2 4
M  V30 4 1 3 5
M  V30 5 1 6 3 CFG=1
M  V30 6 2 4 7
M  V30 7 1 4 8
M  V30 8 2 5 9
M  V30 9 1 6 10
M  V30 10 1 6 11
M  V30 11 1 7 12
M  V30 12 2 8 13
M  V30 13 2 10 14
M  V30 14 1 10 15
M  V30 15 1 11 16
M  V30 16 2 12 17
M  V30 17 1 16 18
M  V30 18 2 16 19
M  V30 19 2 18 20
M  V30 20 1 18 21
M  V30 21 1 19 22
M  V30 22 1 20 23
M  V30 23 2 21 24
M  V30 24 2 23 25
M  V30 25 1 5 7
M  V30 26 1 13 17
M  V30 27 1 20 22
M  V30 28 1 24 25
M  V30 END BOND
M  V30 BEGIN COLLECTION
M  V30 MDLV30/STERAC1 ATOMS=(1 6)
M  V30 END COLLECTION
M  V30 END CTAB
M  END
>  <Column 1>
184

>  <Column 2>
PandemicResponseBox - Plate C

>  <Column 3>
H04

>  <Column 4>
MMV452821

>  <Column 5>
10 mM

>  <Column 6>
ANTIBACTERIALS

>  <Column 7>


>  <Column 8>
None

>  <Column 9>
NSC401077

>  <Column 10>
OC(=O)C(Cc1c[nH]c2ccccc12)N3C(=O)c4ccccc4C3=O

>  <Column 11>
CHEMBL383475

>  <Column 12>


>  <Column 13>
334.3

>  <Column 14>
C19H14N2O4

>  <Tox-Glu>
ATCTOX

>  <Column 15>


>  <Column 16>
106 

>  <Column 17>
109 

>  <Column 18>
108 

>  <Column 19>


>  <Tox-Gal>
CTOXGAL

>  <Column 20>


>  <Column 21>
100 

>  <Column 22>
94 

>  <Column 23>
102 

>  <Column 24>


>  <Column 25>


>  <PAMPA>
PAMPA

>  <Column 26>
<17

>  <Column 27>


>  <Column 28>


>  <Mouse>
ATMETMOU

>  <Column 29>
0

>  <Column 30>


$$$$
Compound 186
Actelion Java MolfileCreator 2.0

  0  0  0  0  0  0              0 V3000
M  V30 BEGIN CTAB
M  V30 COUNTS 20 22 0 0 0
M  V30 BEGIN ATOM
M  V30 1 F 4.3301 0.9999 0.0 0
M  V30 2 C 4.3301 0.0 0.0 0
M  V30 3 C 3.4641 -0.5 0.0 0
M  V30 4 C 5.1961 -0.5 0.0 0
M  V30 5 C 3.4641 -1.5 0.0 0
M  V30 6 C 2.598 0.0 0.0 0
M  V30 7 C 5.1961 -1.5 0.0 0
M  V30 8 C 4.3301 -2.0 0.0 0
M  V30 9 C 1.732 -0.5 0.0 0
M  V30 10 O 1.732 -1.5 0.0 0
M  V30 11 N 0.866 0.0 0.0 0
M  V30 12 C 0.0 -0.5 0.0 0
M  V30 13 N -0.9135 -0.0932 0.0 0
M  V30 14 N -0.1045 -1.4945 0.0 0
M  V30 15 C -1.5826 -0.8364 0.0 0
M  V30 16 C -1.0826 -1.7024 0.0 0
M  V30 17 C -2.5826 -0.8364 0.0 0
M  V30 18 C -1.5826 -2.5684 0.0 0
M  V30 19 C -3.0826 -1.7024 0.0 0
M  V30 20 C -2.5826 -2.5684 0.0 0
M  V30 END ATOM
M  V30 BEGIN BOND
M  V30 1 1 1 2
M  V30 2 2 2 3
M  V30 3 1 2 4
M  V30 4 1 3 5
M  V30 5 1 3 6
M  V30 6 2 4 7
M  V30 7 2 5 8
M  V30 8 1 6 9
M  V30 9 2 9 10
M  V30 10 1 9 11
M  V30 11 1 11 12
M  V30 12 2 12 13
M  V30 13 1 12 14
M  V30 14 1 13 15
M  V30 15 1 14 16
M  V30 16 1 15 17
M  V30 17 1 16 18
M  V30 18 2 17 19
M  V30 19 2 18 20
M  V30 20 1 7 8
M  V30 21 2 15 16
M  V30 22 1 19 20
M  V30 END BOND
M  V30 END CTAB
M  END
>  <Column 1>
185

>  <Column 2>
PandemicResponseBox - Plate C

>  <Column 3>
A05

>  <Column 4>
MMV1578576

>  <Column 5>
10 mM

>  <Column 6>
ANTIBACTERIALS

>  <Column 7>


>  <Column 8>
None

>  <Column 9>
AC1M0PJ2

>  <Column 10>
Fc1ccccc1CC(=O)Nc2nc3ccccc3[nH]2

>  <Column 11>
CHEMBL1568820

>  <Column 12>


>  <Column 13>
269.3

>  <Column 14>
C15 H12 F N3 O

>  <Tox-Glu>
ATCTOX

>  <Column 15>


>  <Column 16>
108 

>  <Column 17>
104 

>  <Column 18>
83 

>  <Column 19>


>  <Tox-Gal>
CTOXGAL

>  <Column 20>


>  <Column 21>
103 

>  <Column 22>
92 

>  <Column 23>
87 

>  <Column 24>


>  <Column 25>


>  <PAMPA>
PAMPA

>  <Column 26>
176

>  <Column 27>


>  <Column 28>


>  <Mouse>
ATMETMOU

>  <Column 29>
>768

>  <Column 30>


$$$$
Compound 187
Actelion Java MolfileCreator 2.0

  0  0  0  0  0  0              0 V3000
M  V30 BEGIN CTAB
M  V30 COUNTS 26 28 0 0 0
M  V30 BEGIN ATOM
M  V30 1 S 9.0932 -3.0 0.0 0
M  V30 2 O 10.5932 -3.0 0.0 0
M  V30 3 O 9.8432 -1.7009 0.0 0
M  V30 4 N 9.0932 -4.5 0.0 0
M  V30 5 C 7.7942 -2.25 0.0 0
M  V30 6 C 10.3923 -5.25 0.0 0
M  V30 7 C 7.7942 -0.75 0.0 0
M  V30 8 C 6.4952 -3.0 0.0 0
M  V30 9 C 10.3923 -6.75 0.0 0
M  V30 10 C 11.6913 -4.5 0.0 0
M  V30 11 C 6.4952 0.0 0.0 0
M  V30 12 C 5.1961 -2.25 0.0 0
M  V30 13 C 11.6913 -7.5 0.0 0
M  V30 14 C 12.9904 -5.25 0.0 0
M  V30 15 C 5.1961 -0.75 0.0 0
M  V30 16 C 12.9904 -6.75 0.0 0
M  V30 17 N 3.8971 0.0 0.0 0
M  V30 18 C 2.598 -0.75 0.0 0
M  V30 19 S 2.598 -2.25 0.0 0
M  V30 20 N 1.299 0.0 0.0 0
M  V30 21 C 0.0 -0.75 0.0 0
M  V30 22 C -1.299 0.0 0.0 0
M  V30 23 C 0.0 -2.25 0.0 0
M  V30 24 C -2.598 -0.75 0.0 0
M  V30 25 C -1.299 -3.0 0.0 0
M  V30 26 C -2.598 -2.25 0.0 0
M  V30 END ATOM
M  V30 BEGIN BOND
M  V30 1 2 1 2
M  V30 2 2 1 3
M  V30 3 1 1 4
M  V30 4 1 1 5
M  V30 5 1 4 6
M  V30 6 2 5 7
M  V30 7 1 5 8
M  V30 8 2 6 9
M  V30 9 1 6 10
M  V30 10 1 7 11
M  V30 11 2 8 12
M  V30 12 1 9 13
M  V30 13 2 10 14
M  V30 14 2 11 15
M  V30 15 2 13 16
M  V30 16 1 15 17
M  V30 17 1 17 18
M  V30 18 2 18 19
M  V30 19 1 18 20
M  V30 20 1 20 21
M  V30 21 2 21 22
M  V30 22 1 21 23
M  V30 23 1 22 24
M  V30 24 2 23 25
M  V30 25 2 24 26
M  V30 26 1 12 15
M  V30 27 1 14 16
M  V30 28 1 25 26
M  V30 END BOND
M  V30 END CTAB
M  END
>  <Column 1>
186

>  <Column 2>
PandemicResponseBox - Plate C

>  <Column 3>
B05

>  <Column 4>
MMV1578562

>  <Column 5>
10 mM

>  <Column 6>
ANTIBACTERIALS

>  <Column 7>


>  <Column 8>
None

>  <Column 9>
LED209

>  <Column 10>
O=S(=O)(Nc1ccccc1)c2ccc(NC(=S)Nc3ccccc3)cc2

>  <Column 11>
CHEMBL516533

>  <Column 12>


>  <Column 13>
383.5

>  <Column 14>
C19 H17 N3 O2 S2

>  <Tox-Glu>
ATCTOX

>  <Column 15>


>  <Column 16>
109 

>  <Column 17>
94 

>  <Column 18>
3 

>  <Column 19>


>  <Tox-Gal>
CTOXGAL

>  <Column 20>


>  <Column 21>
102 

>  <Column 22>
68 

>  <Column 23>
1 

>  <Column 24>


>  <Column 25>


>  <PAMPA>
PAMPA

>  <Column 26>
78

>  <Column 27>


>  <Column 28>


>  <Mouse>
ATMETMOU

>  <Column 29>
581

>  <Column 30>


$$$$
Compound 188
Actelion Java MolfileCreator 2.0

  0  0  0  0  0  0              0 V3000
M  V30 BEGIN CTAB
M  V30 COUNTS 24 26 0 0 0
M  V30 BEGIN ATOM
M  V30 1 Cl 1.732 1.4999 0.0 0
M  V30 2 C 2.598 1.0 0.0 0
M  V30 3 C 2.598 0.0 0.0 0
M  V30 4 C 3.4641 1.4999 0.0 0
M  V30 5 N 3.4641 -0.5 0.0 0
M  V30 6 C 1.732 -0.5 0.0 0
M  V30 7 C 4.3301 1.0 0.0 0
M  V30 8 N 4.3301 0.0 0.0 0
M  V30 9 O 1.732 -1.5 0.0 0
M  V30 10 N 0.866 0.0 0.0 0
M  V30 11 O 5.1961 1.5 0.0 0
M  V30 12 C 5.1961 -0.5 0.0 0
M  V30 13 C 0.0 -0.5 0.0 0
M  V30 14 C 5.1961 -1.5 0.0 0
M  V30 15 C 6.0621 0.0 0.0 0
M  V30 16 C -0.866 0.0 0.0 0
M  V30 17 C 0.0 -1.4999 0.0 0
M  V30 18 C 6.0621 -1.9999 0.0 0
M  V30 19 C 6.9282 -0.4999 0.0 0
M  V30 20 C -1.732 -0.4999 0.0 0
M  V30 21 C -0.866 -1.9999 0.0 0
M  V30 22 C 6.9282 -1.4999 0.0 0
M  V30 23 C -1.732 -1.4999 0.0 0
M  V30 24 F -2.598 -1.9999 0.0 0
M  V30 END ATOM
M  V30 BEGIN BOND
M  V30 1 1 1 2
M  V30 2 1 2 3
M  V30 3 2 2 4
M  V30 4 2 3 5
M  V30 5 1 3 6
M  V30 6 1 4 7
M  V30 7 1 5 8
M  V30 8 2 6 9
M  V30 9 1 6 10
M  V30 10 2 7 11
M  V30 11 1 8 12
M  V30 12 1 10 13
M  V30 13 2 12 14
M  V30 14 1 12 15
M  V30 15 2 13 16
M  V30 16 1 13 17
M  V30 17 1 14 18
M  V30 18 2 15 19
M  V30 19 1 16 20
M  V30 20 2 17 21
M  V30 21 2 18 22
M  V30 22 2 20 23
M  V30 23 1 23 24
M  V30 24 1 7 8
M  V30 25 1 19 22
M  V30 26 1 21 23
M  V30 END BOND
M  V30 END CTAB
M  END
>  <Column 1>
187

>  <Column 2>
PandemicResponseBox - Plate C

>  <Column 3>
C05

>  <Column 4>
MMV1578555

>  <Column 5>
10 mM

>  <Column 6>
ANTIBACTERIALS

>  <Column 7>


>  <Column 8>
None

>  <Column 9>


>  <Column 10>
Fc1ccc(NC(=O)C2=NN(C(=O)C=C2Cl)c3ccccc3)cc1

>  <Column 11>
CHEMBL1504283

>  <Column 12>


>  <Column 13>
343.7

>  <Column 14>
C17 H11 Cl F N3 O2

>  <Tox-Glu>
ATCTOX

>  <Column 15>


>  <Column 16>
76 

>  <Column 17>
0 

>  <Column 18>
1 

>  <Column 19>


>  <Tox-Gal>
CTOXGAL

>  <Column 20>


>  <Column 21>
106 

>  <Column 22>
0 

>  <Column 23>
1 

>  <Column 24>


>  <Column 25>


>  <PAMPA>
PAMPA

>  <Column 26>
300

>  <Column 27>


>  <Column 28>


>  <Mouse>
ATMETMOU

>  <Column 29>
361

>  <Column 30>


$$$$
Compound 189
Actelion Java MolfileCreator 2.0

  0  0  0  0  0  0              0 V3000
M  V30 BEGIN CTAB
M  V30 COUNTS 9 9 0 0 0
M  V30 BEGIN ATOM
M  V30 1 Br 0.866 0.0 0.0 0
M  V30 2 C 0.0 -0.5 0.0 0
M  V30 3 C -0.9135 -0.0932 0.0 0
M  V30 4 C -0.1045 -1.4945 0.0 0
M  V30 5 O -1.1214 0.8848 0.0 0
M  V30 6 N -1.5826 -0.8364 0.0 0
M  V30 7 Br 0.6386 -2.1636 0.0 0
M  V30 8 C -1.0826 -1.7024 0.0 0
M  V30 9 O -1.4894 -2.6159 0.0 0
M  V30 END ATOM
M  V30 BEGIN BOND
M  V30 1 1 1 2
M  V30 2 1 2 3
M  V30 3 2 2 4
M  V30 4 2 3 5
M  V30 5 1 3 6
M  V30 6 1 4 7
M  V30 7 1 4 8
M  V30 8 2 8 9
M  V30 9 1 6 8
M  V30 END BOND
M  V30 END CTAB
M  END
>  <Column 1>
188

>  <Column 2>
PandemicResponseBox - Plate C

>  <Column 3>
D05

>  <Column 4>
MMV1578554

>  <Column 5>
10 mM

>  <Column 6>
ANTIBACTERIALS

>  <Column 7>


>  <Column 8>
None

>  <Column 9>
2,3-Dibromomaleinimide

>  <Column 10>
BrC1=C(Br)C(=O)NC1=O

>  <Column 11>
CHEMBL447173

>  <Column 12>


>  <Column 13>
254.9

>  <Column 14>
C4 H Br2 N O2

>  <Tox-Glu>
ATCTOX

>  <Column 15>


>  <Column 16>
0 

>  <Column 17>
0 

>  <Column 18>
0 

>  <Column 19>


>  <Tox-Gal>
CTOXGAL

>  <Column 20>


>  <Column 21>
18 

>  <Column 22>
0 

>  <Column 23>
0 

>  <Column 24>


>  <Column 25>


>  <PAMPA>
PAMPA

>  <Column 26>
119

>  <Column 27>


>  <Column 28>


>  <Mouse>
ATMETMOU

>  <Column 29>


>  <Column 30>
Not determined; Low sensitivity

$$$$
Compound 190
Actelion Java MolfileCreator 2.0

  0  0  0  0  0  0              0 V3000
M  V30 BEGIN CTAB
M  V30 COUNTS 66 70 0 0 0
M  V30 BEGIN ATOM
M  V30 1 F 10.8923 0.366 0.0 0
M  V30 2 C 10.3923 -0.5 0.0 0
M  V30 3 F 11.2583 -1.0 0.0 0
M  V30 4 F 9.8923 -1.366 0.0 0
M  V30 5 C 9.5262 0.0 0.0 0
M  V30 6 C 9.5262 1.0 0.0 0
M  V30 7 C 8.6602 -0.4999 0.0 0
M  V30 8 C 8.6602 1.5 0.0 0
M  V30 9 C 7.7942 0.0 0.0 0
M  V30 10 N 8.6602 2.5 0.0 0
M  V30 11 C 7.7942 1.0 0.0 0
M  V30 12 N 6.9282 -0.5 0.0 0
M  V30 13 C 9.5262 2.9999 0.0 0
M  V30 14 O 6.9282 1.5 0.0 0
M  V30 15 C 6.9282 -1.4999 0.0 0
M  V30 16 O 10.3923 2.4999 0.0 0
M  V30 17 C 9.5262 3.9999 0.0 0
M  V30 18 C 6.0621 1.0 0.0 0 CFG=1
M  V30 19 O 7.7942 -1.9999 0.0 0
M  V30 20 C 6.0621 -2.0 0.0 0
M  V30 21 N 10.3923 4.4999 0.0 0
M  V30 22 C 8.6602 4.5 0.0 0
M  V30 23 C 5.1486 1.4067 0.0 0
M  V30 24 C 5.9576 0.0054 0.0 0
M  V30 25 C 6.0621 -3.0 0.0 0
M  V30 26 C 10.3923 5.4999 0.0 0
M  V30 27 C 8.6602 5.5 0.0 0
M  V30 28 N 4.4795 0.6635 0.0 0
M  V30 29 C 4.9795 -0.2024 0.0 0
M  V30 30 C 5.1961 -3.5 0.0 0
M  V30 31 N 9.5262 5.9999 0.0 0
M  V30 32 C 7.7942 6.0 0.0 0
M  V30 33 C 5.1961 -4.5 0.0 0
M  V30 34 O 6.9282 5.5 0.0 0
M  V30 35 N 7.7942 7.0 0.0 0
M  V30 36 N 4.3301 -5.0 0.0 0
M  V30 37 C 6.9282 7.5 0.0 0
M  V30 38 C 4.3301 -6.0 0.0 0
M  V30 39 C 6.9282 8.5 0.0 0
M  V30 40 C 6.0621 7.0 0.0 0
M  V30 41 N 5.1961 -6.5 0.0 0
M  V30 42 N 3.4641 -6.5 0.0 0
M  V30 43 O 7.7942 9.0 0.0 0
M  V30 44 C 6.0621 9.0 0.0 0
M  V30 45 C 5.1961 7.5 0.0 0
M  V30 46 C 7.7942 10.0 0.0 0 CFG=1
M  V30 47 N 6.0621 10.0 0.0 0
M  V30 48 C 5.1961 8.5 0.0 0
M  V30 49 C 4.3301 7.0 0.0 0
M  V30 50 C 8.6032 10.5877 0.0 0
M  V30 51 C 6.9852 10.5877 0.0 0
M  V30 52 C 5.1961 10.5 0.0 0
M  V30 53 F 4.8301 6.1339 0.0 0
M  V30 54 F 3.4641 6.5 0.0 0
M  V30 55 F 3.8301 7.866 0.0 0
M  V30 56 N 8.2942 11.5388 0.0 0
M  V30 57 C 7.2942 11.5388 0.0 0
M  V30 58 O 4.3301 10.0 0.0 0
M  V30 59 C 5.1961 11.5 0.0 0
M  V30 60 C 4.3301 12.0 0.0 0
M  V30 61 C 4.3301 13.0 0.0 0
M  V30 62 C 3.4641 13.5 0.0 0
M  V30 63 N 3.4641 14.5 0.0 0
M  V30 64 C 2.598 15.0 0.0 0
M  V30 65 N 1.732 14.5 0.0 0
M  V30 66 N 2.598 16.0 0.0 0
M  V30 END ATOM
M  V30 BEGIN BOND
M  V30 1 1 1 2
M  V30 2 1 2 3
M  V30 3 1 2 4
M  V30 4 1 2 5
M  V30 5 2 5 6
M  V30 6 1 5 7
M  V30 7 1 6 8
M  V30 8 2 7 9
M  V30 9 1 8 10
M  V30 10 2 8 11
M  V30 11 1 9 12
M  V30 12 1 10 13
M  V30 13 1 11 14
M  V30 14 1 12 15
M  V30 15 2 13 16
M  V30 16 1 13 17
M  V30 17 1 18 14 CFG=3
M  V30 18 2 15 19
M  V30 19 1 15 20
M  V30 20 2 17 21
M  V30 21 1 17 22
M  V30 22 1 18 23
M  V30 23 1 18 24
M  V30 24 1 20 25
M  V30 25 1 21 26
M  V30 26 2 22 27
M  V30 27 1 23 28
M  V30 28 1 24 29
M  V30 29 1 25 30
M  V30 30 2 26 31
M  V30 31 1 27 32
M  V30 32 1 30 33
M  V30 33 2 32 34
M  V30 34 1 32 35
M  V30 35 1 33 36
M  V30 36 1 35 37
M  V30 37 1 36 38
M  V30 38 2 37 39
M  V30 39 1 37 40
M  V30 40 2 38 41
M  V30 41 1 38 42
M  V30 42 1 39 43
M  V30 43 1 39 44
M  V30 44 2 40 45
M  V30 45 1 46 43 CFG=3
M  V30 46 1 44 47
M  V30 47 2 44 48
M  V30 48 1 45 49
M  V30 49 1 46 50
M  V30 50 1 46 51
M  V30 51 1 47 52
M  V30 52 1 49 53
M  V30 53 1 49 54
M  V30 54 1 49 55
M  V30 55 1 50 56
M  V30 56 1 51 57
M  V30 57 2 52 58
M  V30 58 1 52 59
M  V30 59 1 59 60
M  V30 60 1 60 61
M  V30 61 1 61 62
M  V30 62 1 62 63
M  V30 63 1 63 64
M  V30 64 2 64 65
M  V30 65 1 64 66
M  V30 66 1 9 11
M  V30 67 1 27 31
M  V30 68 1 28 29
M  V30 69 1 45 48
M  V30 70 1 56 57
M  V30 END BOND
M  V30 BEGIN COLLECTION
M  V30 MDLV30/STEABS ATOMS=(2 18 46)
M  V30 END COLLECTION
M  V30 END CTAB
M  END
>  <Column 1>
189

>  <Column 2>
PandemicResponseBox - Plate C

>  <Column 3>
E05

>  <Column 4>
MMV1634402

>  <Column 5>
10 mM

>  <Column 6>
ANTIBACTERIALS

>  <Column 7>
6

>  <Column 8>
Trifluoroacetic acid

>  <Column 9>


>  <Column 10>
FC(F)(F)C2=CC(=C(O[C@H]1CNCC1)C(=C2)NC(=O)CCCCNC(=N)N)NC(=O)C3=NC=NC(=C3)C(=O)NC5=C(O[C@H]4CNCC4)C(=CC(=C5)C(F)(F)F)NC(=O)CCCCNC(=N)N

>  <Column 11>
CHEMBL2219413

>  <Column 12>


>  <Column 13>
1621

>  <Column 14>
C40 H50 F6 N14 O6

>  <Tox-Glu>
ATCTOX

>  <Column 15>


>  <Column 16>
110 

>  <Column 17>
107 

>  <Column 18>
77 

>  <Column 19>


>  <Tox-Gal>
CTOXGAL

>  <Column 20>


>  <Column 21>
110 

>  <Column 22>
98 

>  <Column 23>
87 

>  <Column 24>


>  <Column 25>


>  <PAMPA>
PAMPA

>  <Column 26>
undetected

>  <Column 27>
low sensitivity

>  <Column 28>


>  <Mouse>
ATMETMOU

>  <Column 29>


>  <Column 30>
Not determined; Low sensitivity

$$$$
Compound 191
Actelion Java MolfileCreator 2.0

  0  0  0  0  0  0              0 V3000
M  V30 BEGIN CTAB
M  V30 COUNTS 29 33 0 0 0
M  V30 BEGIN ATOM
M  V30 1 O -0.5919 2.0649 0.0 0
M  V30 2 C 0.3861 2.2728 0.0 0
M  V30 3 C -0.9009 1.1139 0.0 0
M  V30 4 C 1.0553 1.5297 0.0 0
M  V30 5 C 0.6952 3.2239 0.0 0
M  V30 6 C -1.8791 0.906 0.0 0
M  V30 7 C -0.2318 0.3707 0.0 0
M  V30 8 C 2.0334 1.7376 0.0 0
M  V30 9 C 1.6733 3.4318 0.0 0
M  V30 10 C -2.1881 -0.045 0.0 0
M  V30 11 C -0.5408 -0.5802 0.0 0
M  V30 12 C 2.3424 2.6887 0.0 0
M  V30 13 C 2.7026 0.9945 0.0 0
M  V30 14 C -1.519 -0.7881 0.0 0
M  V30 15 N 3.3206 2.8966 0.0 0
M  V30 16 N 2.598 0.0 0.0 0
M  V30 17 C 3.6807 1.2024 0.0 0
M  V30 18 C 3.9897 2.1534 0.0 0
M  V30 19 C 3.5116 -0.4067 0.0 0
M  V30 20 C 1.732 -0.5 0.0 0
M  V30 21 C 4.1807 0.3364 0.0 0
M  V30 22 C 4.9679 2.3614 0.0 0
M  V30 23 C 1.732 -1.5 0.0 0
M  V30 24 C 0.866 -2.0 0.0 0
M  V30 25 C 0.866 -3.0 0.0 0
M  V30 26 C 0.0 -1.5 0.0 0
M  V30 27 C 0.0 -3.5 0.0 0
M  V30 28 C -0.866 -2.0 0.0 0
M  V30 29 C -0.866 -3.0 0.0 0
M  V30 END ATOM
M  V30 BEGIN BOND
M  V30 1 1 1 2
M  V30 2 1 1 3
M  V30 3 2 2 4
M  V30 4 1 2 5
M  V30 5 2 3 6
M  V30 6 1 3 7
M  V30 7 1 4 8
M  V30 8 2 5 9
M  V30 9 1 6 10
M  V30 10 2 7 11
M  V30 11 1 8 12
M  V30 12 2 8 13
M  V30 13 2 10 14
M  V30 14 2 12 15
M  V30 15 1 13 16
M  V30 16 1 13 17
M  V30 17 1 15 18
M  V30 18 1 16 19
M  V30 19 1 16 20
M  V30 20 1 17 21
M  V30 21 1 18 22
M  V30 22 1 20 23
M  V30 23 1 23 24
M  V30 24 2 24 25
M  V30 25 1 24 26
M  V30 26 1 25 27
M  V30 27 2 26 28
M  V30 28 2 27 29
M  V30 29 1 9 12
M  V30 30 1 11 14
M  V30 31 2 17 18
M  V30 32 1 19 21
M  V30 33 1 28 29
M  V30 END BOND
M  V30 END CTAB
M  END
>  <Column 1>
190

>  <Column 2>
PandemicResponseBox - Plate C

>  <Column 3>
F05

>  <Column 4>
MMV1634399

>  <Column 5>
10 mM

>  <Column 6>
ANTIBACTERIALS

>  <Column 7>


>  <Column 8>
None

>  <Column 9>


>  <Column 10>
O(C3=CC2=C1N(CCC1=C(N=C2C=C3)C)CCC4=CC=CC=C4)C5=CC=CC=C5

>  <Column 11>
NA

>  <Column 12>
WO�2012153130�

>  <Column 13>
380.5

>  <Column 14>
C26 H24 N2 O

>  <Tox-Glu>
ATCTOX

>  <Column 15>


>  <Column 16>
7 

>  <Column 17>
0 

>  <Column 18>
1 

>  <Column 19>


>  <Tox-Gal>
CTOXGAL

>  <Column 20>


>  <Column 21>
0 

>  <Column 22>
0 

>  <Column 23>
1 

>  <Column 24>


>  <Column 25>


>  <PAMPA>
PAMPA

>  <Column 26>
292

>  <Column 27>


>  <Column 28>


>  <Mouse>
ATMETMOU

>  <Column 29>
173

>  <Column 30>


$$$$
Compound 192
Actelion Java MolfileCreator 2.0

  0  0  0  0  0  0              0 V3000
M  V30 BEGIN CTAB
M  V30 COUNTS 27 28 0 0 0
M  V30 BEGIN ATOM
M  V30 1 Cl 4.3301 0.0 0.0 0
M  V30 2 C 3.4641 -0.5 0.0 0 CFG=2
M  V30 3 C 2.598 0.0 0.0 0 CFG=1
M  V30 4 C 3.4641 -1.5 0.0 0
M  V30 5 N 1.732 -0.5 0.0 0
M  V30 6 C 2.598 1.0 0.0 0 CFG=1
M  V30 7 C 0.866 0.0 0.0 0
M  V30 8 O 1.732 1.5 0.0 0
M  V30 9 C 3.4641 1.5 0.0 0 CFG=2
M  V30 10 O 0.866 1.0 0.0 0
M  V30 11 C 0.0 -0.5 0.0 0 CFG=1
M  V30 12 C 1.732 2.5 0.0 0 CFG=2
M  V30 13 O 4.3301 1.0 0.0 0
M  V30 14 C 3.4641 2.5 0.0 0 CFG=1
M  V30 15 N -0.9135 -0.0932 0.0 0
M  V30 16 C -0.1045 -1.4945 0.0 0
M  V30 17 S 0.866 3.0 0.0 0
M  V30 18 C 2.598 3.0 0.0 0 CFG=1
M  V30 19 O 4.3301 3.0 0.0 0
M  V30 20 C -1.5826 -0.8364 0.0 0
M  V30 21 C -1.1214 0.8848 0.0 0
M  V30 22 C -1.0826 -1.7024 0.0 0 CFG=2
M  V30 23 C 0.866 4.0 0.0 0
M  V30 24 O 2.598 4.0 0.0 0
M  V30 25 C -1.4894 -2.6159 0.0 0
M  V30 26 C -2.4839 -2.7205 0.0 0
M  V30 27 C -2.8906 -3.634 0.0 0
M  V30 END ATOM
M  V30 BEGIN BOND
M  V30 1 1 2 1 CFG=1
M  V30 2 1 3 2
M  V30 3 1 2 4
M  V30 4 1 3 5 CFG=1
M  V30 5 1 6 3
M  V30 6 1 5 7
M  V30 7 1 6 8 CFG=1
M  V30 8 1 9 6
M  V30 9 2 7 10
M  V30 10 1 11 7 CFG=3
M  V30 11 1 12 8
M  V30 12 1 9 13 CFG=1
M  V30 13 1 14 9
M  V30 14 1 11 15
M  V30 15 1 11 16
M  V30 16 1 12 17 CFG=3
M  V30 17 1 18 12
M  V30 18 1 14 19 CFG=1
M  V30 19 1 15 20
M  V30 20 1 15 21
M  V30 21 1 22 16
M  V30 22 1 17 23
M  V30 23 1 18 24 CFG=3
M  V30 24 1 22 25 CFG=1
M  V30 25 1 25 26
M  V30 26 1 26 27
M  V30 27 1 14 18
M  V30 28 1 20 22
M  V30 END BOND
M  V30 BEGIN COLLECTION
M  V30 MDLV30/STEABS ATOMS=(9 2 3 6 9 11 12 14 18 22)
M  V30 END COLLECTION
M  V30 END CTAB
M  END
>  <Column 1>
191

>  <Column 2>
PandemicResponseBox - Plate C

>  <Column 3>
G05

>  <Column 4>
MMV000051

>  <Column 5>
10 mM

>  <Column 6>
ANTIBACTERIALS

>  <Column 7>
1

>  <Column 8>
Hydrochloric acid

>  <Column 9>
Clindamycin

>  <Column 10>
CCC[C@@H]1C[C@H](N(C)C1)C(=O)N[C@H]([C@H](C)Cl)[C@H]2O[C@H](SC)[C@H](O)[C@@H](O)[C@H]2O

>  <Column 11>
CHEMBL1753

>  <Column 12>


>  <Column 13>
461.5

>  <Column 14>
C18H33ClN2O5S

>  <Tox-Glu>
ATCTOX

>  <Column 15>


>  <Column 16>
89 

>  <Column 17>
97 

>  <Column 18>
97 

>  <Column 19>


>  <Tox-Gal>
CTOXGAL

>  <Column 20>


>  <Column 21>
91 

>  <Column 22>
92 

>  <Column 23>
97 

>  <Column 24>


>  <Column 25>


>  <PAMPA>
PAMPA

>  <Column 26>
474

>  <Column 27>


>  <Column 28>


>  <Mouse>
ATMETMOU

>  <Column 29>
60

>  <Column 30>


$$$$
Compound 193
Actelion Java MolfileCreator 2.0

  0  0  0  0  0  0              0 V3000
M  V30 BEGIN CTAB
M  V30 COUNTS 13 13 0 0 0
M  V30 BEGIN ATOM
M  V30 1 O 2.1673 2.6418 0.0 0
M  V30 2 N 1.9594 1.6636 0.0 0 CHG=1 VAL=5
M  V30 3 O 1.0084 1.3546 0.0 0 CHG=-1
M  V30 4 C 2.7026 0.9945 0.0 0
M  V30 5 N 2.598 0.0 0.0 0
M  V30 6 C 3.6807 1.2024 0.0 0
M  V30 7 C 3.5116 -0.4067 0.0 0
M  V30 8 C 1.732 -0.5 0.0 0
M  V30 9 N 4.1807 0.3364 0.0 0
M  V30 10 C 3.7195 -1.3848 0.0 0
M  V30 11 C 1.732 -1.5 0.0 0 CFG=1
M  V30 12 O 2.598 -2.0 0.0 0
M  V30 13 C 0.866 -2.0 0.0 0
M  V30 END ATOM
M  V30 BEGIN BOND
M  V30 1 2 1 2
M  V30 2 1 2 3
M  V30 3 1 2 4
M  V30 4 1 4 5
M  V30 5 2 4 6
M  V30 6 1 5 7
M  V30 7 1 5 8
M  V30 8 1 6 9
M  V30 9 1 7 10
M  V30 10 1 11 8
M  V30 11 1 11 12 CFG=1
M  V30 12 1 11 13
M  V30 13 2 7 9
M  V30 END BOND
M  V30 BEGIN COLLECTION
M  V30 MDLV30/STERAC1 ATOMS=(1 11)
M  V30 END COLLECTION
M  V30 END CTAB
M  END
>  <Column 1>
192

>  <Column 2>
PandemicResponseBox - Plate C

>  <Column 3>
H05

>  <Column 4>
MMV002287

>  <Column 5>
10 mM

>  <Column 6>
ANTIBACTERIALS

>  <Column 7>


>  <Column 8>
None

>  <Column 9>
Secnidazole

>  <Column 10>
CC(O)C[N]1C(=NC=C1[N](=O)=O)C

>  <Column 11>
CHEMBL498847

>  <Column 12>


>  <Column 13>
185.2

>  <Column 14>
C7H11N3O3

>  <Tox-Glu>
ATCTOX

>  <Column 15>


>  <Column 16>
91 

>  <Column 17>
96 

>  <Column 18>
96 

>  <Column 19>


>  <Tox-Gal>
CTOXGAL

>  <Column 20>


>  <Column 21>
92 

>  <Column 22>
92 

>  <Column 23>
99 

>  <Column 24>


>  <Column 25>


>  <PAMPA>
PAMPA

>  <Column 26>
16

>  <Column 27>


>  <Column 28>


>  <Mouse>
ATMETMOU

>  <Column 29>
-21

>  <Column 30>


$$$$
Compound 194
Actelion Java MolfileCreator 2.0

  0  0  0  0  0  0              0 V3000
M  V30 BEGIN CTAB
M  V30 COUNTS 33 36 0 0 0
M  V30 BEGIN ATOM
M  V30 1 F 6.0418 -1.8832 0.0 0
M  V30 2 C 5.8339 -2.8614 0.0 0
M  V30 3 F 6.812 -3.0693 0.0 0
M  V30 4 F 5.626 -3.8395 0.0 0
M  V30 5 C 4.8557 -2.6534 0.0 0
M  V30 6 N 4.5467 -1.7024 0.0 0
M  V30 7 C 4.1866 -3.3966 0.0 0
M  V30 8 N 5.0467 -0.8364 0.0 0
M  V30 9 C 3.5686 -1.4945 0.0 0
M  V30 10 C 3.2085 -3.1887 0.0 0
M  V30 11 C 4.3776 -0.0932 0.0 0
M  V30 12 N 2.8994 -2.2376 0.0 0
M  V30 13 C 3.4641 -0.5 0.0 0
M  V30 14 C 2.5393 -3.9318 0.0 0
M  V30 15 C 2.598 0.0 0.0 0
M  V30 16 C 1.5612 -3.7239 0.0 0
M  V30 17 C 2.8484 -4.8829 0.0 0
M  V30 18 O 2.598 1.0 0.0 0
M  V30 19 N 1.732 -0.5 0.0 0
M  V30 20 C 0.8921 -4.4671 0.0 0
M  V30 21 C 2.1792 -5.626 0.0 0
M  V30 22 C 0.866 0.0 0.0 0
M  V30 23 C 1.2011 -5.4181 0.0 0
M  V30 24 C 0.0 -0.5 0.0 0
M  V30 25 C 0.5319 -6.1613 0.0 0
M  V30 26 C -0.866 0.0 0.0 0
M  V30 27 C 0.0 -1.4999 0.0 0
M  V30 28 C 0.841 -7.1123 0.0 0
M  V30 29 C -1.732 -0.4999 0.0 0
M  V30 30 C -0.866 -1.9999 0.0 0
M  V30 31 C -1.732 -1.4999 0.0 0
M  V30 32 O -2.598 -1.9999 0.0 0
M  V30 33 C -2.598 -2.9999 0.0 0
M  V30 END ATOM
M  V30 BEGIN BOND
M  V30 1 1 1 2
M  V30 2 1 2 3
M  V30 3 1 2 4
M  V30 4 1 2 5
M  V30 5 1 5 6
M  V30 6 1 5 7
M  V30 7 1 6 8
M  V30 8 1 6 9
M  V30 9 1 7 10
M  V30 10 2 8 11
M  V30 11 1 9 12
M  V30 12 2 9 13
M  V30 13 1 10 14
M  V30 14 1 13 15
M  V30 15 2 14 16
M  V30 16 1 14 17
M  V30 17 2 15 18
M  V30 18 1 15 19
M  V30 19 1 16 20
M  V30 20 2 17 21
M  V30 21 1 19 22
M  V30 22 2 20 23
M  V30 23 1 22 24
M  V30 24 1 23 25
M  V30 25 2 24 26
M  V30 26 1 24 27
M  V30 27 1 25 28
M  V30 28 1 26 29
M  V30 29 2 27 30
M  V30 30 2 29 31
M  V30 31 1 31 32
M  V30 32 1 32 33
M  V30 33 1 10 12
M  V30 34 1 11 13
M  V30 35 1 21 23
M  V30 36 1 30 31
M  V30 END BOND
M  V30 END CTAB
M  END
>  <Column 1>
193

>  <Column 2>
PandemicResponseBox - Plate C

>  <Column 3>
A06

>  <Column 4>
MMV831201

>  <Column 5>
10 mM

>  <Column 6>
ANTIBACTERIALS

>  <Column 7>


>  <Column 8>
None

>  <Column 9>


>  <Column 10>
FC(F)(C1N2N=CC(C(NCC(C=C3)=CC=C3OC)=O)=C2NC(C(C=C4)=CC=C4CC)C1)F

>  <Column 11>
NA

>  <Column 12>
Tuberculosis (Edinb). 2009 September ; 89(5): 354?363,PLoS ONE 8(4):

>  <Column 13>
458.5

>  <Column 14>
C24 H25 F3 N4 O2

>  <Tox-Glu>
ATCTOX

>  <Column 15>


>  <Column 16>
86 

>  <Column 17>
17 

>  <Column 18>
15 

>  <Column 19>


>  <Tox-Gal>
CTOXGAL

>  <Column 20>


>  <Column 21>
83 

>  <Column 22>
1 

>  <Column 23>
0 

>  <Column 24>


>  <Column 25>


>  <PAMPA>
PAMPA

>  <Column 26>
213

>  <Column 27>


>  <Column 28>


>  <Mouse>
ATMETMOU

>  <Column 29>
104

>  <Column 30>


$$$$
Compound 195
Actelion Java MolfileCreator 2.0

  0  0  0  0  0  0              0 V3000
M  V30 BEGIN CTAB
M  V30 COUNTS 14 13 0 0 0
M  V30 BEGIN ATOM
M  V30 1 O 11.6913 0.0 0.0 0
M  V30 2 C 10.3923 -0.75 0.0 0
M  V30 3 C 9.0932 0.0 0.0 0 CFG=1
M  V30 4 N 7.7942 -0.75 0.0 0
M  V30 5 C 9.0932 1.5 0.0 0
M  V30 6 C 6.4951 0.0 0.0 0
M  V30 7 C 7.7942 2.25 0.0 0
M  V30 8 C 5.1961 -0.75 0.0 0
M  V30 9 N 3.8971 0.0 0.0 0
M  V30 10 C 2.598 -0.75 0.0 0 CFG=2
M  V30 11 C 2.598 -2.25 0.0 0
M  V30 12 C 1.299 0.0 0.0 0
M  V30 13 O 3.8971 -3.0 0.0 0
M  V30 14 C 0.0 -0.75 0.0 0
M  V30 END ATOM
M  V30 BEGIN BOND
M  V30 1 1 1 2
M  V30 2 1 3 2
M  V30 3 1 3 4 CFG=1
M  V30 4 1 3 5
M  V30 5 1 4 6
M  V30 6 1 5 7
M  V30 7 1 6 8
M  V30 8 1 8 9
M  V30 9 1 10 9 CFG=3
M  V30 10 1 10 11
M  V30 11 1 10 12
M  V30 12 1 11 13
M  V30 13 1 12 14
M  V30 END BOND
M  V30 BEGIN COLLECTION
M  V30 MDLV30/STEABS ATOMS=(2 3 10)
M  V30 END COLLECTION
M  V30 END CTAB
M  END
>  <Column 1>
194

>  <Column 2>
PandemicResponseBox - Plate C

>  <Column 3>
B06

>  <Column 4>
MMV687801

>  <Column 5>
10 mM

>  <Column 6>
ANTIBACTERIALS

>  <Column 7>


>  <Column 8>
None

>  <Column 9>
Ethambutol

>  <Column 10>
CC[C@@H](CO)NCCN[C@@H](CC)CO

>  <Column 11>
CHEMBL44884

>  <Column 12>


>  <Column 13>
204.3

>  <Column 14>
C10H24N2O2

>  <Tox-Glu>
ATCTOX

>  <Column 15>


>  <Column 16>
93 

>  <Column 17>
99 

>  <Column 18>
97 

>  <Column 19>


>  <Tox-Gal>
CTOXGAL

>  <Column 20>


>  <Column 21>
99 

>  <Column 22>
97 

>  <Column 23>
101 

>  <Column 24>


>  <Column 25>


>  <PAMPA>
PAMPA

>  <Column 26>
undetected

>  <Column 27>
low sensitivity

>  <Column 28>


>  <Mouse>
ATMETMOU

>  <Column 29>


>  <Column 30>
Not determined; Broad Peak

$$$$
Compound 196
Actelion Java MolfileCreator 2.0

  0  0  0  0  0  0              0 V3000
M  V30 BEGIN CTAB
M  V30 COUNTS 29 32 0 0 0
M  V30 BEGIN ATOM
M  V30 1 O 3.7195 -1.3848 0.0 0
M  V30 2 C 3.5116 -0.4067 0.0 0
M  V30 3 O 4.1807 0.3364 0.0 0
M  V30 4 C 2.598 0.0 0.0 0
M  V30 5 C 3.6807 1.2024 0.0 0 CFG=2
M  V30 6 C 2.7026 0.9945 0.0 0
M  V30 7 C 1.732 -0.5 0.0 0
M  V30 8 C 4.0874 2.1159 0.0 0
M  V30 9 O 1.9594 1.6636 0.0 0
M  V30 10 O 1.732 -1.5 0.0 0
M  V30 11 N 0.866 0.0 0.0 0
M  V30 12 C 3.4997 2.9249 0.0 0
M  V30 13 C 0.0 -0.5 0.0 0
M  V30 14 C 3.9064 3.8385 0.0 0
M  V30 15 C 2.5051 2.8204 0.0 0
M  V30 16 C -0.866 0.0 0.0 0
M  V30 17 C 0.0 -1.4999 0.0 0
M  V30 18 C 3.3186 4.6475 0.0 0
M  V30 19 C 1.9173 3.6294 0.0 0
M  V30 20 C -1.732 -0.4999 0.0 0
M  V30 21 C -0.866 -1.9999 0.0 0
M  V30 22 C 2.3241 4.543 0.0 0
M  V30 23 C -1.732 -1.4999 0.0 0
M  V30 24 C -2.598 -1.9999 0.0 0
M  V30 25 C -3.4641 -1.4999 0.0 0
M  V30 26 C -2.598 -2.9999 0.0 0
M  V30 27 C -4.3301 -1.9999 0.0 0
M  V30 28 C -3.4641 -3.4999 0.0 0
M  V30 29 C -4.3301 -2.9999 0.0 0
M  V30 END ATOM
M  V30 BEGIN BOND
M  V30 1 2 1 2
M  V30 2 1 2 3
M  V30 3 1 2 4
M  V30 4 1 5 3
M  V30 5 2 4 6
M  V30 6 1 4 7
M  V30 7 1 5 8 CFG=3
M  V30 8 1 6 9
M  V30 9 2 7 10
M  V30 10 1 7 11
M  V30 11 1 8 12
M  V30 12 1 11 13
M  V30 13 2 12 14
M  V30 14 1 12 15
M  V30 15 2 13 16
M  V30 16 1 13 17
M  V30 17 1 14 18
M  V30 18 2 15 19
M  V30 19 1 16 20
M  V30 20 2 17 21
M  V30 21 2 18 22
M  V30 22 2 20 23
M  V30 23 1 23 24
M  V30 24 2 24 25
M  V30 25 1 24 26
M  V30 26 1 25 27
M  V30 27 2 26 28
M  V30 28 2 27 29
M  V30 29 1 5 6
M  V30 30 1 19 22
M  V30 31 1 21 23
M  V30 32 1 28 29
M  V30 END BOND
M  V30 BEGIN COLLECTION
M  V30 MDLV30/STERAC1 ATOMS=(1 5)
M  V30 END COLLECTION
M  V30 END CTAB
M  END
>  <Column 1>
195

>  <Column 2>
PandemicResponseBox - Plate C

>  <Column 3>
C06

>  <Column 4>
MMV1593531

>  <Column 5>
10 mM

>  <Column 6>
ANTIBACTERIALS

>  <Column 7>


>  <Column 8>
None

>  <Column 9>


>  <Column 10>
OC1=C(C(=O)Nc2ccc(cc2)c3ccccc3)C(=O)OC1Cc4ccccc4

>  <Column 11>
CHEMBL271293

>  <Column 12>


>  <Column 13>
385.4

>  <Column 14>
C24 H19 N O4

>  <Tox-Glu>
ATCTOX

>  <Column 15>


>  <Column 16>
61 

>  <Column 17>
5 

>  <Column 18>
0 

>  <Column 19>


>  <Tox-Gal>
CTOXGAL

>  <Column 20>


>  <Column 21>
70 

>  <Column 22>
12 

>  <Column 23>
1 

>  <Column 24>


>  <Column 25>


>  <PAMPA>
PAMPA

>  <Column 26>
undetected

>  <Column 27>
low sensitivity

>  <Column 28>


>  <Mouse>
ATMETMOU

>  <Column 29>
-14

>  <Column 30>


$$$$
Compound 197
Actelion Java MolfileCreator 2.0

  0  0  0  0  0  0              0 V3000
M  V30 BEGIN CTAB
M  V30 COUNTS 27 30 0 0 0
M  V30 BEGIN ATOM
M  V30 1 O 0.0 2.25 0.0 0
M  V30 2 C 1.299 1.4999 0.0 0
M  V30 3 N 1.299 0.0 0.0 0
M  V30 4 C 2.598 2.25 0.0 0
M  V30 5 C 0.0 -0.75 0.0 0
M  V30 6 C 3.8971 1.4999 0.0 0
M  V30 7 C 2.598 3.75 0.0 0
M  V30 8 N -1.299 0.0 0.0 0
M  V30 9 C 0.0 -2.2499 0.0 0
M  V30 10 C 5.1961 2.2499 0.0 0
M  V30 11 C 3.8971 0.0 0.0 0
M  V30 12 C 3.8971 4.4999 0.0 0
M  V30 13 C 1.299 4.5 0.0 0
M  V30 14 C -2.598 -0.7499 0.0 0
M  V30 15 C -1.299 -2.9999 0.0 0
M  V30 16 C 1.299 -2.9999 0.0 0
M  V30 17 C 5.1961 3.75 0.0 0
M  V30 18 C -3.8971 0.0 0.0 0
M  V30 19 C -2.598 -2.2499 0.0 0
M  V30 20 C -1.299 -4.4999 0.0 0
M  V30 21 C 1.299 -4.5 0.0 0
M  V30 22 N -3.8971 1.5 0.0 0
M  V30 23 C -5.1961 -0.7499 0.0 0
M  V30 24 C 0.0 -5.2499 0.0 0
M  V30 25 C -5.1961 2.25 0.0 0
M  V30 26 C -6.4951 0.0 0.0 0
M  V30 27 C -6.4951 1.5 0.0 0
M  V30 END ATOM
M  V30 BEGIN BOND
M  V30 1 2 1 2
M  V30 2 1 2 3
M  V30 3 1 2 4
M  V30 4 1 3 5
M  V30 5 2 4 6
M  V30 6 1 4 7
M  V30 7 2 5 8
M  V30 8 1 5 9
M  V30 9 1 6 10
M  V30 10 1 6 11
M  V30 11 2 7 12
M  V30 12 1 7 13
M  V30 13 1 8 14
M  V30 14 1 9 15
M  V30 15 2 9 16
M  V30 16 2 10 17
M  V30 17 1 14 18
M  V30 18 2 14 19
M  V30 19 2 15 20
M  V30 20 1 16 21
M  V30 21 2 18 22
M  V30 22 1 18 23
M  V30 23 1 20 24
M  V30 24 1 22 25
M  V30 25 2 23 26
M  V30 26 2 25 27
M  V30 27 1 12 17
M  V30 28 1 15 19
M  V30 29 2 21 24
M  V30 30 1 26 27
M  V30 END BOND
M  V30 END CTAB
M  END
>  <Column 1>
196

>  <Column 2>
PandemicResponseBox - Plate C

>  <Column 3>
D06

>  <Column 4>
MMV1581558

>  <Column 5>
10 mM

>  <Column 6>
ANTIBACTERIALS

>  <Column 7>


>  <Column 8>
None

>  <Column 9>


>  <Column 10>
Cc1cccc(C)c1C(=O)Nc2nc(cc3ccccc23)c4ccccn4

>  <Column 11>
CHEMBL420517

>  <Column 12>


>  <Column 13>
353.4

>  <Column 14>
C23 H19 N3 O

>  <Tox-Glu>
ATCTOX

>  <Column 15>


>  <Column 16>
64 

>  <Column 17>
47 

>  <Column 18>
51 

>  <Column 19>


>  <Tox-Gal>
CTOXGAL

>  <Column 20>


>  <Column 21>
74 

>  <Column 22>
62 

>  <Column 23>
68 

>  <Column 24>


>  <Column 25>


>  <PAMPA>
PAMPA

>  <Column 26>
330

>  <Column 27>


>  <Column 28>


>  <Mouse>
ATMETMOU

>  <Column 29>
766

>  <Column 30>


$$$$
Compound 198
Actelion Java MolfileCreator 2.0

  0  0  0  0  0  0              0 V3000
M  V30 BEGIN CTAB
M  V30 COUNTS 22 24 0 0 0
M  V30 BEGIN ATOM
M  V30 1 S 5.8147 -1.7024 0.0 0
M  V30 2 O 5.8147 -2.7024 0.0 0
M  V30 3 O 5.8147 -0.7024 0.0 0
M  V30 4 N 6.8147 -1.7024 0.0 0
M  V30 5 C 4.8147 -1.7024 0.0 0
M  V30 6 C 4.3147 -0.8364 0.0 0
M  V30 7 C 4.3147 -2.5684 0.0 0
M  V30 8 C 3.3147 -0.8364 0.0 0
M  V30 9 C 3.3147 -2.5684 0.0 0
M  V30 10 C 2.6455 -0.0932 0.0 0
M  V30 11 C 2.8147 -1.7024 0.0 0
M  V30 12 C 2.8535 0.8848 0.0 0
M  V30 13 C 1.732 -0.5 0.0 0
M  V30 14 N 1.8365 -1.4945 0.0 0
M  V30 15 C 3.8045 1.1939 0.0 0
M  V30 16 C 2.1103 1.554 0.0 0
M  V30 17 C 0.866 0.0 0.0 0
M  V30 18 C 4.0124 2.172 0.0 0
M  V30 19 C 2.3182 2.5321 0.0 0
M  V30 20 O 0.866 1.0 0.0 0
M  V30 21 N 0.0 -0.5 0.0 0
M  V30 22 C 3.2693 2.8411 0.0 0
M  V30 END ATOM
M  V30 BEGIN BOND
M  V30 1 2 1 2
M  V30 2 2 1 3
M  V30 3 1 1 4
M  V30 4 1 1 5
M  V30 5 2 5 6
M  V30 6 1 5 7
M  V30 7 1 6 8
M  V30 8 2 7 9
M  V30 9 1 8 10
M  V30 10 2 8 11
M  V30 11 1 10 12
M  V30 12 2 10 13
M  V30 13 1 11 14
M  V30 14 2 12 15
M  V30 15 1 12 16
M  V30 16 1 13 17
M  V30 17 1 15 18
M  V30 18 2 16 19
M  V30 19 2 17 20
M  V30 20 1 17 21
M  V30 21 2 18 22
M  V30 22 1 9 11
M  V30 23 1 13 14
M  V30 24 1 19 22
M  V30 END BOND
M  V30 END CTAB
M  END
>  <Column 1>
197

>  <Column 2>
PandemicResponseBox - Plate C

>  <Column 3>
E06

>  <Column 4>
MMV1581556

>  <Column 5>
10 mM

>  <Column 6>
ANTIBACTERIALS

>  <Column 7>


>  <Column 8>
None

>  <Column 9>


>  <Column 10>
NC(=O)c1[nH]c2ccc(cc2c1c3ccccc3)S(=O)(=O)N

>  <Column 11>
CHEMBL512633

>  <Column 12>


>  <Column 13>
315.3

>  <Column 14>
C15 H13 N3 O3 S

>  <Tox-Glu>
ATCTOX

>  <Column 15>


>  <Column 16>
92 

>  <Column 17>
94 

>  <Column 18>
76 

>  <Column 19>


>  <Tox-Gal>
CTOXGAL

>  <Column 20>


>  <Column 21>
104 

>  <Column 22>
101 

>  <Column 23>
96 

>  <Column 24>


>  <Column 25>


>  <PAMPA>
PAMPA

>  <Column 26>
18

>  <Column 27>


>  <Column 28>


>  <Mouse>
ATMETMOU

>  <Column 29>
11

>  <Column 30>


$$$$
Compound 199
Actelion Java MolfileCreator 2.0

  0  0  0  0  0  0              0 V3000
M  V30 BEGIN CTAB
M  V30 COUNTS 19 20 0 0 0
M  V30 BEGIN ATOM
M  V30 1 N 5.1961 -2.25 0.0 0
M  V30 2 C 5.1961 -0.75 0.0 0
M  V30 3 C 3.8971 -2.9999 0.0 0
M  V30 4 N 3.8971 0.0 0.0 0
M  V30 5 N 6.4951 0.0 0.0 0
M  V30 6 N 3.8971 -4.5 0.0 0
M  V30 7 C 2.598 -2.25 0.0 0
M  V30 8 C 2.598 -0.75 0.0 0
M  V30 9 C 1.299 -3.0 0.0 0
M  V30 10 C 1.299 0.0 0.0 0
M  V30 11 C 0.0 -3.75 0.0 0
M  V30 12 C 0.0 -0.75 0.0 0
M  V30 13 C -1.299 -4.5 0.0 0
M  V30 14 C -1.299 -6.0 0.0 0
M  V30 15 C -2.598 -6.75 0.0 0
M  V30 16 C 0.0 -6.75 0.0 0
M  V30 17 C -2.598 -8.25 0.0 0
M  V30 18 C 0.0 -8.25 0.0 0
M  V30 19 C -1.299 -9.0 0.0 0
M  V30 END ATOM
M  V30 BEGIN BOND
M  V30 1 2 1 2
M  V30 2 1 1 3
M  V30 3 1 2 4
M  V30 4 1 2 5
M  V30 5 1 3 6
M  V30 6 2 3 7
M  V30 7 2 4 8
M  V30 8 1 7 9
M  V30 9 1 8 10
M  V30 10 3 9 11
M  V30 11 1 10 12
M  V30 12 1 11 13
M  V30 13 1 13 14
M  V30 14 2 14 15
M  V30 15 1 14 16
M  V30 16 1 15 17
M  V30 17 2 16 18
M  V30 18 2 17 19
M  V30 19 1 7 8
M  V30 20 1 18 19
M  V30 END BOND
M  V30 END CTAB
M  END
>  <Column 1>
198

>  <Column 2>
PandemicResponseBox - Plate C

>  <Column 3>
F06

>  <Column 4>
MMV1581549

>  <Column 5>
10 mM

>  <Column 6>
ANTIBACTERIALS

>  <Column 7>


>  <Column 8>
None

>  <Column 9>


>  <Column 10>
CCc1nc(N)nc(N)c1C#CCc2ccccc2

>  <Column 11>
CHEMBL501263

>  <Column 12>


>  <Column 13>
252.3

>  <Column 14>
C15 H16 N4

>  <Tox-Glu>
ATCTOX

>  <Column 15>


>  <Column 16>
62 

>  <Column 17>
58 

>  <Column 18>
20 

>  <Column 19>


>  <Tox-Gal>
CTOXGAL

>  <Column 20>


>  <Column 21>
85 

>  <Column 22>
72 

>  <Column 23>
31 

>  <Column 24>


>  <Column 25>


>  <PAMPA>
PAMPA

>  <Column 26>
376

>  <Column 27>


>  <Column 28>


>  <Mouse>
ATMETMOU

>  <Column 29>
669

>  <Column 30>


$$$$
Compound 200
Actelion Java MolfileCreator 2.0

  0  0  0  0  0  0              0 V3000
M  V30 BEGIN CTAB
M  V30 COUNTS 32 34 0 0 0
M  V30 BEGIN ATOM
M  V30 1 O 6.3234 -6.0611 0.0 0
M  V30 2 C 5.9167 -5.1475 0.0 0
M  V30 3 N 6.5045 -4.3385 0.0 0
M  V30 4 C 4.9222 -5.043 0.0 0
M  V30 5 C 6.0977 -3.4249 0.0 0
M  V30 6 C 4.5154 -4.1294 0.0 0
M  V30 7 C 4.3344 -5.852 0.0 0
M  V30 8 C 6.6855 -2.6159 0.0 0
M  V30 9 C 3.5209 -4.0249 0.0 0
M  V30 10 C 3.3399 -5.7475 0.0 0
M  V30 11 N 6.2788 -1.7024 0.0 0
M  V30 12 C 2.9331 -4.8339 0.0 0
M  V30 13 N 6.7788 -0.8364 0.0 0
M  V30 14 C 5.3006 -1.4945 0.0 0
M  V30 15 C 1.9386 -4.7294 0.0 0
M  V30 16 N 6.1096 -0.0932 0.0 0
M  V30 17 C 5.1961 -0.5 0.0 0
M  V30 18 C 1.5319 -3.8158 0.0 0
M  V30 19 C 4.3301 0.0 0.0 0
M  V30 20 C 0.5373 -3.7113 0.0 0
M  V30 21 C 3.4641 -0.5 0.0 0
M  V30 22 C 0.1306 -2.7978 0.0 0
M  V30 23 C 2.598 0.0 0.0 0
M  V30 24 C -0.8638 -2.6932 0.0 0
M  V30 25 C 1.732 -0.5 0.0 0
M  V30 26 C 0.866 0.0 0.0 0
M  V30 27 C 0.0 -0.5 0.0 0
M  V30 28 N -0.9135 -0.0932 0.0 0
M  V30 29 C -0.1045 -1.4945 0.0 0
M  V30 30 C -1.5826 -0.8364 0.0 0
M  V30 31 N -1.0826 -1.7024 0.0 0
M  V30 32 N -2.5771 -0.7318 0.0 0
M  V30 END ATOM
M  V30 BEGIN BOND
M  V30 1 2 1 2
M  V30 2 1 2 3
M  V30 3 1 2 4
M  V30 4 1 3 5
M  V30 5 2 4 6
M  V30 6 1 4 7
M  V30 7 1 5 8
M  V30 8 1 6 9
M  V30 9 2 7 10
M  V30 10 1 8 11
M  V30 11 2 9 12
M  V30 12 1 11 13
M  V30 13 1 11 14
M  V30 14 1 12 15
M  V30 15 2 13 16
M  V30 16 2 14 17
M  V30 17 1 15 18
M  V30 18 1 17 19
M  V30 19 1 18 20
M  V30 20 1 19 21
M  V30 21 1 20 22
M  V30 22 1 21 23
M  V30 23 1 22 24
M  V30 24 1 23 25
M  V30 25 1 25 26
M  V30 26 1 26 27
M  V30 27 1 27 28
M  V30 28 2 27 29
M  V30 29 1 28 30
M  V30 30 1 29 31
M  V30 31 1 30 32
M  V30 32 1 10 12
M  V30 33 1 16 17
M  V30 34 2 30 31
M  V30 END BOND
M  V30 END CTAB
M  END
>  <Column 1>
199

>  <Column 2>
PandemicResponseBox - Plate C

>  <Column 3>
G06

>  <Column 4>
MMV1580847

>  <Column 5>
10 mM

>  <Column 6>
ANTIBACTERIALS

>  <Column 7>
1

>  <Column 8>
Hydrochloric acid

>  <Column 9>


>  <Column 10>
CCCCCc1ccc(cc1)C(=O)NCCn2cc(CCCCCc3cnc(N)[nH]3)nn2

>  <Column 11>
CHEMBL2365407

>  <Column 12>


>  <Column 13>
474.1

>  <Column 14>
C24 H35 N7 O

>  <Tox-Glu>
ATCTOX

>  <Column 15>


>  <Column 16>
94 

>  <Column 17>
22 

>  <Column 18>
0 

>  <Column 19>


>  <Tox-Gal>
CTOXGAL

>  <Column 20>


>  <Column 21>
106 

>  <Column 22>
1 

>  <Column 23>
0 

>  <Column 24>


>  <Column 25>


>  <PAMPA>
PAMPA

>  <Column 26>
1

>  <Column 27>


>  <Column 28>


>  <Mouse>
ATMETMOU

>  <Column 29>
199

>  <Column 30>


$$$$
Compound 201
Actelion Java MolfileCreator 2.0

  0  0  0  0  0  0              0 V3000
M  V30 BEGIN CTAB
M  V30 COUNTS 21 23 0 0 0
M  V30 BEGIN ATOM
M  V30 1 O 3.4641 -0.5 0.0 0
M  V30 2 C 2.598 0.0 0.0 0
M  V30 3 N 1.732 -0.5 0.0 0
M  V30 4 C 2.598 1.0 0.0 0
M  V30 5 C 0.866 0.0 0.0 0
M  V30 6 N 3.407 1.5877 0.0 0
M  V30 7 C 1.789 1.5877 0.0 0
M  V30 8 C 0.0 -0.5 0.0 0
M  V30 9 C 3.098 2.5388 0.0 0
M  V30 10 C 4.3852 1.3798 0.0 0
M  V30 11 N 2.098 2.5388 0.0 0
M  V30 12 C 0.838 1.2787 0.0 0
M  V30 13 C -0.866 0.0 0.0 0
M  V30 14 C 0.0 -1.4999 0.0 0
M  V30 15 C 3.7672 3.2819 0.0 0
M  V30 16 C 5.0543 2.123 0.0 0
M  V30 17 C -1.732 -0.4999 0.0 0
M  V30 18 C -0.866 -1.9999 0.0 0
M  V30 19 C 4.7453 3.074 0.0 0
M  V30 20 C -1.732 -1.4999 0.0 0
M  V30 21 C 5.4144 3.8172 0.0 0
M  V30 END ATOM
M  V30 BEGIN BOND
M  V30 1 2 1 2
M  V30 2 1 2 3
M  V30 3 1 2 4
M  V30 4 1 3 5
M  V30 5 1 4 6
M  V30 6 2 4 7
M  V30 7 1 5 8
M  V30 8 1 6 9
M  V30 9 1 6 10
M  V30 10 1 7 11
M  V30 11 1 7 12
M  V30 12 2 8 13
M  V30 13 1 8 14
M  V30 14 1 9 15
M  V30 15 2 10 16
M  V30 16 1 13 17
M  V30 17 2 14 18
M  V30 18 2 15 19
M  V30 19 2 17 20
M  V30 20 1 19 21
M  V30 21 2 9 11
M  V30 22 1 16 19
M  V30 23 1 18 20
M  V30 END BOND
M  V30 END CTAB
M  END
>  <Column 1>
200

>  <Column 2>
PandemicResponseBox - Plate C

>  <Column 3>
H06

>  <Column 4>
MMV1579847

>  <Column 5>
10 mM

>  <Column 6>
ANTIBACTERIALS

>  <Column 7>


>  <Column 8>
None

>  <Column 9>
IAP 1

>  <Column 10>
Cc1ccn2c(C(=O)NCc3ccccc3)c(C)nc2c1

>  <Column 11>
CHEMBL1951792

>  <Column 12>


>  <Column 13>
279.3

>  <Column 14>
C17 H17 N3 O

>  <Tox-Glu>
ATCTOX

>  <Column 15>


>  <Column 16>
99 

>  <Column 17>
102 

>  <Column 18>
97 

>  <Column 19>


>  <Tox-Gal>
CTOXGAL

>  <Column 20>


>  <Column 21>
104 

>  <Column 22>
99 

>  <Column 23>
101 

>  <Column 24>


>  <Column 25>


>  <PAMPA>
PAMPA

>  <Column 26>
290

>  <Column 27>


>  <Column 28>


>  <Mouse>
ATMETMOU

>  <Column 29>
265

>  <Column 30>


$$$$
Compound 202
Actelion Java MolfileCreator 2.0

  0  0  0  0  0  0              0 V3000
M  V30 BEGIN CTAB
M  V30 COUNTS 17 18 0 0 0
M  V30 BEGIN ATOM
M  V30 1 O 2.8254 -2.1636 0.0 0
M  V30 2 C 3.5686 -1.4945 0.0 0
M  V30 3 O 4.5467 -1.7024 0.0 0
M  V30 4 C 3.4641 -0.5 0.0 0 CFG=1
M  V30 5 C 5.0467 -0.8364 0.0 0
M  V30 6 N 2.598 0.0 0.0 0
M  V30 7 C 4.3776 -0.0932 0.0 0
M  V30 8 C 1.732 -0.5 0.0 0
M  V30 9 O 1.732 -1.5 0.0 0
M  V30 10 C 0.866 0.0 0.0 0
M  V30 11 C 0.0 -0.5 0.0 0
M  V30 12 C -0.866 0.0 0.0 0
M  V30 13 C 0.0 -1.4999 0.0 0
M  V30 14 C -1.732 -0.4999 0.0 0
M  V30 15 C -0.866 -1.9999 0.0 0
M  V30 16 C -1.732 -1.4999 0.0 0
M  V30 17 C -2.598 0.0 0.0 0
M  V30 END ATOM
M  V30 BEGIN BOND
M  V30 1 2 1 2
M  V30 2 1 2 3
M  V30 3 1 4 2
M  V30 4 1 3 5
M  V30 5 1 4 6 CFG=1
M  V30 6 1 4 7
M  V30 7 1 6 8
M  V30 8 2 8 9
M  V30 9 1 8 10
M  V30 10 1 10 11
M  V30 11 2 11 12
M  V30 12 1 11 13
M  V30 13 1 12 14
M  V30 14 2 13 15
M  V30 15 2 14 16
M  V30 16 1 14 17
M  V30 17 1 5 7
M  V30 18 1 15 16
M  V30 END BOND
M  V30 BEGIN COLLECTION
M  V30 MDLV30/STEABS ATOMS=(1 4)
M  V30 END COLLECTION
M  V30 END CTAB
M  END
>  <Column 1>
201

>  <Column 2>
PandemicResponseBox - Plate C

>  <Column 3>
A07

>  <Column 4>
MMV1579782

>  <Column 5>
10 mM

>  <Column 6>
ANTIBACTERIALS

>  <Column 7>


>  <Column 8>
None

>  <Column 9>


>  <Column 10>
Cc1cccc(CC(=O)N[C@H]2CCOC2=O)c1

>  <Column 11>
CHEMBL457057

>  <Column 12>
US 20170231962,WO 2008116029 

>  <Column 13>
233.3

>  <Column 14>
C13 H15 N O3

>  <Tox-Glu>
ATCTOX

>  <Column 15>


>  <Column 16>
96 

>  <Column 17>
99 

>  <Column 18>
92 

>  <Column 19>


>  <Tox-Gal>
CTOXGAL

>  <Column 20>


>  <Column 21>
106 

>  <Column 22>
96 

>  <Column 23>
99 

>  <Column 24>


>  <Column 25>


>  <PAMPA>
PAMPA

>  <Column 26>
39

>  <Column 27>


>  <Column 28>


>  <Mouse>
ATMETMOU

>  <Column 29>
14

>  <Column 30>


$$$$
Compound 203
Actelion Java MolfileCreator 2.0

  0  0  0  0  0  0              0 V3000
M  V30 BEGIN CTAB
M  V30 COUNTS 18 19 0 0 0
M  V30 BEGIN ATOM
M  V30 1 Br 0.866 -1.9999 0.0 0
M  V30 2 C 1.732 -1.4999 0.0 0
M  V30 3 C 2.598 -1.9999 0.0 0
M  V30 4 C 1.732 -0.5 0.0 0
M  V30 5 O 2.598 -3.0 0.0 0
M  V30 6 N 3.4641 -1.4999 0.0 0
M  V30 7 N 2.598 0.0 0.0 0
M  V30 8 C 0.866 0.0 0.0 0
M  V30 9 C 3.4641 -0.5 0.0 0
M  V30 10 N 0.0 -0.5 0.0 0
M  V30 11 O 4.3301 0.0 0.0 0
M  V30 12 C -0.9135 -0.0932 0.0 0
M  V30 13 C -0.1045 -1.4945 0.0 0
M  V30 14 N -1.5826 -0.8364 0.0 0
M  V30 15 C -1.0826 -1.7024 0.0 0
M  V30 16 N -1.4894 -2.6159 0.0 0 CHG=1
M  V30 17 O -2.4839 -2.7205 0.0 0
M  V30 18 O -0.9016 -3.4249 0.0 0 CHG=-1
M  V30 END ATOM
M  V30 BEGIN BOND
M  V30 1 1 1 2
M  V30 2 2 2 3
M  V30 3 1 2 4
M  V30 4 1 3 5
M  V30 5 1 3 6
M  V30 6 2 4 7
M  V30 7 1 4 8
M  V30 8 2 6 9
M  V30 9 1 8 10
M  V30 10 1 9 11
M  V30 11 1 10 12
M  V30 12 1 10 13
M  V30 13 2 12 14
M  V30 14 2 13 15
M  V30 15 1 15 16
M  V30 16 2 16 17
M  V30 17 1 16 18
M  V30 18 1 7 9
M  V30 19 1 14 15
M  V30 END BOND
M  V30 END CTAB
M  END
>  <Column 1>
202

>  <Column 2>
PandemicResponseBox - Plate C

>  <Column 3>
B07

>  <Column 4>
MMV1579777

>  <Column 5>
10 mM

>  <Column 6>
ANTIBACTERIALS

>  <Column 7>


>  <Column 8>
None

>  <Column 9>


>  <Column 10>
Oc1nc(O)c(Br)c(Cn2cnc(c2)N(=O)=O)n1

>  <Column 11>
CHEMBL191863

>  <Column 12>


>  <Column 13>
316.1

>  <Column 14>
C8 H6 Br N5 O4

>  <Tox-Glu>
ATCTOX

>  <Column 15>


>  <Column 16>
99 

>  <Column 17>
102 

>  <Column 18>
97 

>  <Column 19>


>  <Tox-Gal>
CTOXGAL

>  <Column 20>


>  <Column 21>
101 

>  <Column 22>
98 

>  <Column 23>
103 

>  <Column 24>


>  <Column 25>


>  <PAMPA>
PAMPA

>  <Column 26>
undetected

>  <Column 27>
low sensitivity

>  <Column 28>


>  <Mouse>
ATMETMOU

>  <Column 29>


>  <Column 30>
Not determined; Broad Peak

$$$$
Compound 204
Actelion Java MolfileCreator 2.0

  0  0  0  0  0  0              0 V3000
M  V30 BEGIN CTAB
M  V30 COUNTS 16 18 0 0 0
M  V30 BEGIN ATOM
M  V30 1 O 3.9487 2.9344 0.0 0
M  V30 2 C 3.4487 2.0684 0.0 0
M  V30 3 C 2.4487 2.0684 0.0 0
M  V30 4 C 3.9487 1.2024 0.0 0
M  V30 5 C 1.9487 1.2024 0.0 0
M  V30 6 C 3.4487 0.3364 0.0 0
M  V30 7 N 0.9705 0.9945 0.0 0
M  V30 8 C 2.4487 0.3364 0.0 0
M  V30 9 C 0.866 0.0 0.0 0
M  V30 10 N 1.7795 -0.4067 0.0 0
M  V30 11 C 0.0 -0.5 0.0 0
M  V30 12 C -0.866 0.0 0.0 0
M  V30 13 C 0.0 -1.4999 0.0 0
M  V30 14 C -1.732 -0.4999 0.0 0
M  V30 15 C -0.866 -1.9999 0.0 0
M  V30 16 C -1.732 -1.4999 0.0 0
M  V30 END ATOM
M  V30 BEGIN BOND
M  V30 1 1 1 2
M  V30 2 2 2 3
M  V30 3 1 2 4
M  V30 4 1 3 5
M  V30 5 2 4 6
M  V30 6 1 5 7
M  V30 7 2 5 8
M  V30 8 2 7 9
M  V30 9 1 8 10
M  V30 10 1 9 11
M  V30 11 2 11 12
M  V30 12 1 11 13
M  V30 13 1 12 14
M  V30 14 2 13 15
M  V30 15 2 14 16
M  V30 16 1 6 8
M  V30 17 1 9 10
M  V30 18 1 15 16
M  V30 END BOND
M  V30 END CTAB
M  END
>  <Column 1>
203

>  <Column 2>
PandemicResponseBox - Plate C

>  <Column 3>
C07

>  <Column 4>
MMV292173

>  <Column 5>
10 mM

>  <Column 6>
ANTIBACTERIALS

>  <Column 7>
1

>  <Column 8>
Hydrobromic acid

>  <Column 9>


>  <Column 10>
Oc1ccc2[nH]c(nc2c1)c3ccccc3

>  <Column 11>
CHEMBL2396656

>  <Column 12>


>  <Column 13>
291.1

>  <Column 14>
C13H10N2O

>  <Tox-Glu>
ATCTOX

>  <Column 15>


>  <Column 16>
98 

>  <Column 17>
90 

>  <Column 18>
59 

>  <Column 19>


>  <Tox-Gal>
CTOXGAL

>  <Column 20>


>  <Column 21>
106 

>  <Column 22>
92 

>  <Column 23>
68 

>  <Column 24>


>  <Column 25>


>  <PAMPA>
PAMPA

>  <Column 26>
151

>  <Column 27>


>  <Column 28>


>  <Mouse>
ATMETMOU

>  <Column 29>
47

>  <Column 30>


$$$$
Compound 205
Actelion Java MolfileCreator 2.0

  0  0  0  0  0  0              0 V3000
M  V30 BEGIN CTAB
M  V30 COUNTS 28 32 0 0 0
M  V30 BEGIN ATOM
M  V30 1 O 3.0028 -5.2212 0.0 0
M  V30 2 C 3.672 -4.4781 0.0 0
M  V30 3 O 4.6665 -4.5826 0.0 0
M  V30 4 C 3.4641 -3.4999 0.0 0
M  V30 5 C 5.0732 -3.6691 0.0 0
M  V30 6 C 2.598 -3.0 0.0 0
M  V30 7 C 4.3301 -2.9999 0.0 0
M  V30 8 C 2.598 -1.9999 0.0 0
M  V30 9 C 1.732 -3.5 0.0 0
M  V30 10 C 4.3301 -1.9999 0.0 0
M  V30 11 C 3.4641 -1.4999 0.0 0
M  V30 12 C 1.732 -1.4999 0.0 0
M  V30 13 C 0.866 -3.0 0.0 0
M  V30 14 C 1.732 -4.5 0.0 0
M  V30 15 O 5.1961 -1.4999 0.0 0
M  V30 16 C 3.4641 -0.4999 0.0 0
M  V30 17 C 1.732 -0.5 0.0 0
M  V30 18 C 0.0 -3.5 0.0 0
M  V30 19 C 0.866 -5.0 0.0 0
M  V30 20 C 2.598 0.0 0.0 0
M  V30 21 O 0.866 0.0 0.0 0
M  V30 22 O -0.951 -3.1909 0.0 0
M  V30 23 C 0.0 -4.5 0.0 0
M  V30 24 O 2.598 1.0 0.0 0
M  V30 25 C 0.0 -0.5 0.0 0
M  V30 26 C -1.5388 -4.0 0.0 0
M  V30 27 O -0.951 -4.809 0.0 0
M  V30 28 C 1.732 1.5 0.0 0
M  V30 END ATOM
M  V30 BEGIN BOND
M  V30 1 2 1 2
M  V30 2 1 2 3
M  V30 3 1 2 4
M  V30 4 1 3 5
M  V30 5 2 4 6
M  V30 6 1 4 7
M  V30 7 1 6 8
M  V30 8 1 6 9
M  V30 9 2 7 10
M  V30 10 1 8 11
M  V30 11 2 8 12
M  V30 12 2 9 13
M  V30 13 1 9 14
M  V30 14 1 10 15
M  V30 15 2 11 16
M  V30 16 1 12 17
M  V30 17 1 13 18
M  V30 18 2 14 19
M  V30 19 1 16 20
M  V30 20 1 17 21
M  V30 21 1 18 22
M  V30 22 2 18 23
M  V30 23 1 20 24
M  V30 24 1 21 25
M  V30 25 1 22 26
M  V30 26 1 23 27
M  V30 27 1 24 28
M  V30 28 1 5 7
M  V30 29 1 10 11
M  V30 30 2 17 20
M  V30 31 1 19 23
M  V30 32 1 26 27
M  V30 END BOND
M  V30 END CTAB
M  END
>  <Column 1>
204

>  <Column 2>
PandemicResponseBox - Plate C

>  <Column 3>
D07

>  <Column 4>
MMV102270

>  <Column 5>
10 mM

>  <Column 6>
ANTIBACTERIALS

>  <Column 7>


>  <Column 8>
None

>  <Column 9>
Diphyllin

>  <Column 10>
COc1cc2c(O)c3COC(=O)c3c(c4ccc5OCOc5c4)c2cc1OC

>  <Column 11>
CHEMBL221190

>  <Column 12>


>  <Column 13>
380.4

>  <Column 14>
C21H16O7

>  <Tox-Glu>
ATCTOX

>  <Column 15>


>  <Column 16>
64 

>  <Column 17>
62 

>  <Column 18>
32 

>  <Column 19>


>  <Tox-Gal>
CTOXGAL

>  <Column 20>


>  <Column 21>
60 

>  <Column 22>
66 

>  <Column 23>
25 

>  <Column 24>


>  <Column 25>


>  <PAMPA>
PAMPA

>  <Column 26>
176

>  <Column 27>


>  <Column 28>


>  <Mouse>
ATMETMOU

>  <Column 29>
199

>  <Column 30>


$$$$
Compound 206
Actelion Java MolfileCreator 2.0

  0  0  0  0  0  0              0 V3000
M  V30 BEGIN CTAB
M  V30 COUNTS 22 23 0 0 0
M  V30 BEGIN ATOM
M  V30 1 Cl 10.3923 -6.75 0.0 0
M  V30 2 C 10.3923 -5.25 0.0 0
M  V30 3 C 11.6913 -4.5 0.0 0
M  V30 4 C 9.0932 -4.4999 0.0 0
M  V30 5 C 11.6913 -3.0 0.0 0
M  V30 6 C 9.0932 -2.9999 0.0 0
M  V30 7 N 12.9903 -2.25 0.0 0
M  V30 8 C 10.3923 -2.2499 0.0 0
M  V30 9 C 12.9903 -0.75 0.0 0
M  V30 10 C 10.3923 -0.75 0.0 0
M  V30 11 C 11.6913 0.0 0.0 0
M  V30 12 N 9.0932 0.0 0.0 0
M  V30 13 C 7.7942 -0.75 0.0 0 CFG=2
M  V30 14 C 6.4951 0.0 0.0 0
M  V30 15 C 7.7942 -2.25 0.0 0
M  V30 16 C 5.1961 -0.75 0.0 0
M  V30 17 C 3.8971 0.0 0.0 0
M  V30 18 N 2.598 -0.75 0.0 0
M  V30 19 C 2.598 -2.25 0.0 0
M  V30 20 C 1.299 0.0 0.0 0
M  V30 21 C 3.8971 -3.0 0.0 0
M  V30 22 C 0.0 -0.75 0.0 0
M  V30 END ATOM
M  V30 BEGIN BOND
M  V30 1 1 1 2
M  V30 2 2 2 3
M  V30 3 1 2 4
M  V30 4 1 3 5
M  V30 5 2 4 6
M  V30 6 2 5 7
M  V30 7 1 5 8
M  V30 8 1 7 9
M  V30 9 2 8 10
M  V30 10 2 9 11
M  V30 11 1 10 12
M  V30 12 1 13 12 CFG=1
M  V30 13 1 13 14
M  V30 14 1 13 15
M  V30 15 1 14 16
M  V30 16 1 16 17
M  V30 17 1 17 18
M  V30 18 1 18 19
M  V30 19 1 18 20
M  V30 20 1 19 21
M  V30 21 1 20 22
M  V30 22 1 6 8
M  V30 23 1 10 11
M  V30 END BOND
M  V30 BEGIN COLLECTION
M  V30 MDLV30/STERAC1 ATOMS=(1 13)
M  V30 END COLLECTION
M  V30 END CTAB
M  END
>  <Column 1>
205

>  <Column 2>
PandemicResponseBox - Plate C

>  <Column 3>
E07

>  <Column 4>
MMV000008

>  <Column 5>
10 mM

>  <Column 6>
ANTIBACTERIALS

>  <Column 7>


>  <Column 8>
None

>  <Column 9>
Chloroquine

>  <Column 10>
CCN(CC)CCCC(C)Nc1ccnc2cc(Cl)ccc12

>  <Column 11>
CHEMBL76

>  <Column 12>


>  <Column 13>
319.9

>  <Column 14>
C18 H26 Cl N3

>  <Tox-Glu>
ATCTOX

>  <Column 15>


>  <Column 16>
61 

>  <Column 17>
7 

>  <Column 18>
0 

>  <Column 19>


>  <Tox-Gal>
CTOXGAL

>  <Column 20>


>  <Column 21>
85 

>  <Column 22>
31 

>  <Column 23>
1 

>  <Column 24>


>  <Column 25>


>  <PAMPA>
PAMPA

>  <Column 26>
165

>  <Column 27>


>  <Column 28>


>  <Mouse>
ATMETMOU

>  <Column 29>


>  <Column 30>
Not determined; Broad Peak

$$$$
Compound 207
Actelion Java MolfileCreator 2.0

  0  0  0  0  0  0              0 V3000
M  V30 BEGIN CTAB
M  V30 COUNTS 22 24 0 0 0
M  V30 BEGIN ATOM
M  V30 1 S 3.4641 1.4999 0.0 0
M  V30 2 O 3.9641 0.6339 0.0 0
M  V30 3 O 2.9641 2.366 0.0 0
M  V30 4 N 4.3301 1.9999 0.0 0
M  V30 5 C 2.598 0.9999 0.0 0
M  V30 6 C 1.732 1.4999 0.0 0
M  V30 7 C 2.598 0.0 0.0 0
M  V30 8 C 0.866 0.9999 0.0 0
M  V30 9 C 1.732 -0.5 0.0 0
M  V30 10 C 0.866 0.0 0.0 0
M  V30 11 C 0.0 -0.5 0.0 0
M  V30 12 C -0.9135 -0.0932 0.0 0
M  V30 13 C -0.1045 -1.4945 0.0 0
M  V30 14 N -1.5826 -0.8364 0.0 0
M  V30 15 C -1.1214 0.8848 0.0 0
M  V30 16 O -1.0826 -1.7024 0.0 0
M  V30 17 C 0.6386 -2.1636 0.0 0
M  V30 18 C -0.3783 1.554 0.0 0
M  V30 19 C -2.0725 1.1939 0.0 0
M  V30 20 C -0.5862 2.5321 0.0 0
M  V30 21 C -2.2804 2.172 0.0 0
M  V30 22 C -1.5372 2.8411 0.0 0
M  V30 END ATOM
M  V30 BEGIN BOND
M  V30 1 2 1 2
M  V30 2 2 1 3
M  V30 3 1 1 4
M  V30 4 1 1 5
M  V30 5 2 5 6
M  V30 6 1 5 7
M  V30 7 1 6 8
M  V30 8 2 7 9
M  V30 9 2 8 10
M  V30 10 1 10 11
M  V30 11 1 11 12
M  V30 12 2 11 13
M  V30 13 2 12 14
M  V30 14 1 12 15
M  V30 15 1 13 16
M  V30 16 1 13 17
M  V30 17 2 15 18
M  V30 18 1 15 19
M  V30 19 1 18 20
M  V30 20 2 19 21
M  V30 21 2 20 22
M  V30 22 1 9 10
M  V30 23 1 14 16
M  V30 24 1 21 22
M  V30 END BOND
M  V30 END CTAB
M  END
>  <Column 1>
206

>  <Column 2>
PandemicResponseBox - Plate C

>  <Column 3>
F07

>  <Column 4>
MMV002260

>  <Column 5>
10 mM

>  <Column 6>
ANTIBACTERIALS

>  <Column 7>


>  <Column 8>
None

>  <Column 9>
Valdecoxib

>  <Column 10>
Cc1onc(c2ccccc2)c1c3ccc(cc3)S(=O)(=O)N

>  <Column 11>
CHEMBL865

>  <Column 12>


>  <Column 13>
314.4

>  <Column 14>
C16H14N2O3S

>  <Tox-Glu>
ATCTOX

>  <Column 15>


>  <Column 16>
92 

>  <Column 17>
94 

>  <Column 18>
83 

>  <Column 19>


>  <Tox-Gal>
CTOXGAL

>  <Column 20>


>  <Column 21>
94 

>  <Column 22>
90 

>  <Column 23>
11 

>  <Column 24>


>  <Column 25>


>  <PAMPA>
PAMPA

>  <Column 26>
147

>  <Column 27>


>  <Column 28>


>  <Mouse>
ATMETMOU

>  <Column 29>
48

>  <Column 30>


$$$$
Compound 208
Actelion Java MolfileCreator 2.0

  0  0  0  0  0  0              0 V3000
M  V30 BEGIN CTAB
M  V30 COUNTS 24 27 0 0 0
M  V30 BEGIN ATOM
M  V30 1 Cl 5.3076 4.8566 0.0 0
M  V30 2 C 4.9009 3.943 0.0 0
M  V30 3 C 3.9064 3.8385 0.0 0
M  V30 4 C 5.4887 3.134 0.0 0
M  V30 5 C 3.4997 2.9249 0.0 0
M  V30 6 C 5.082 2.2205 0.0 0
M  V30 7 C 4.0874 2.1159 0.0 0
M  V30 8 C 3.6807 1.2024 0.0 0
M  V30 9 O 2.7026 0.9945 0.0 0
M  V30 10 N 4.1807 0.3364 0.0 0
M  V30 11 C 2.598 0.0 0.0 0
M  V30 12 N 3.5116 -0.4067 0.0 0
M  V30 13 N 1.732 -0.5 0.0 0
M  V30 14 C 0.866 0.0 0.0 0
M  V30 15 O 0.866 1.0 0.0 0
M  V30 16 C 0.0 -0.5 0.0 0
M  V30 17 S -0.9135 -0.0932 0.0 0
M  V30 18 N -0.1045 -1.4945 0.0 0
M  V30 19 C -1.5826 -0.8364 0.0 0
M  V30 20 C -1.0826 -1.7024 0.0 0
M  V30 21 C -2.5826 -0.8364 0.0 0
M  V30 22 C -1.5826 -2.5684 0.0 0
M  V30 23 C -3.0826 -1.7024 0.0 0
M  V30 24 C -2.5826 -2.5684 0.0 0
M  V30 END ATOM
M  V30 BEGIN BOND
M  V30 1 1 1 2
M  V30 2 2 2 3
M  V30 3 1 2 4
M  V30 4 1 3 5
M  V30 5 2 4 6
M  V30 6 2 5 7
M  V30 7 1 7 8
M  V30 8 1 8 9
M  V30 9 2 8 10
M  V30 10 1 9 11
M  V30 11 1 10 12
M  V30 12 1 11 13
M  V30 13 1 13 14
M  V30 14 2 14 15
M  V30 15 1 14 16
M  V30 16 1 16 17
M  V30 17 2 16 18
M  V30 18 1 17 19
M  V30 19 1 18 20
M  V30 20 1 19 21
M  V30 21 1 20 22
M  V30 22 2 21 23
M  V30 23 2 22 24
M  V30 24 1 6 7
M  V30 25 2 11 12
M  V30 26 2 19 20
M  V30 27 1 23 24
M  V30 END BOND
M  V30 END CTAB
M  END
>  <Column 1>
207

>  <Column 2>
PandemicResponseBox - Plate C

>  <Column 3>
G07

>  <Column 4>
MMV102833

>  <Column 5>
10 mM

>  <Column 6>
ANTIBACTERIALS

>  <Column 7>


>  <Column 8>
None

>  <Column 9>
MLS000530071

>  <Column 10>
Clc1ccc(cc1)c2oc(NC(=O)c3nc4ccccc4s3)nn2

>  <Column 11>
CHEMBL1347204

>  <Column 12>


>  <Column 13>
356.8

>  <Column 14>
C16H9ClN4O2S

>  <Tox-Glu>
ATCTOX

>  <Column 15>


>  <Column 16>
78 

>  <Column 17>
49 

>  <Column 18>
7 

>  <Column 19>


>  <Tox-Gal>
CTOXGAL

>  <Column 20>


>  <Column 21>
83 

>  <Column 22>
62 

>  <Column 23>
17 

>  <Column 24>


>  <Column 25>


>  <PAMPA>
PAMPA

>  <Column 26>
64

>  <Column 27>


>  <Column 28>


>  <Mouse>
ATMETMOU

>  <Column 29>
>768

>  <Column 30>


$$$$
Compound 209
Actelion Java MolfileCreator 2.0

  0  0  0  0  0  0              0 V3000
M  V30 BEGIN CTAB
M  V30 COUNTS 25 28 0 0 0
M  V30 BEGIN ATOM
M  V30 1 O 3.4641 -1.4999 0.0 0
M  V30 2 C 3.4641 -0.4999 0.0 0
M  V30 3 C 4.3301 0.0 0.0 0
M  V30 4 C 2.598 0.0 0.0 0
M  V30 5 N 5.1961 -0.4999 0.0 0
M  V30 6 C 4.3301 1.0 0.0 0
M  V30 7 C 2.598 1.0 0.0 0
M  V30 8 C 1.732 -0.5 0.0 0 CFG=1
M  V30 9 C 6.0621 0.0 0.0 0
M  V30 10 C 3.4641 1.5 0.0 0
M  V30 11 C 5.1961 1.5 0.0 0
M  V30 12 N 0.866 0.0 0.0 0
M  V30 13 C 1.732 -1.5 0.0 0
M  V30 14 C 6.0621 1.0 0.0 0
M  V30 15 C 0.0 -0.5 0.0 0
M  V30 16 C 0.866 -1.9999 0.0 0
M  V30 17 C 2.598 -2.0 0.0 0
M  V30 18 N -0.866 0.0 0.0 0
M  V30 19 C 0.0 -1.4999 0.0 0
M  V30 20 C 0.866 -2.9999 0.0 0
M  V30 21 C 2.598 -3.0 0.0 0
M  V30 22 C -1.732 -0.4999 0.0 0
M  V30 23 C -0.866 -1.9999 0.0 0
M  V30 24 C 1.732 -3.5 0.0 0
M  V30 25 C -1.732 -1.4999 0.0 0
M  V30 END ATOM
M  V30 BEGIN BOND
M  V30 1 1 1 2
M  V30 2 1 2 3
M  V30 3 2 2 4
M  V30 4 2 3 5
M  V30 5 1 3 6
M  V30 6 1 4 7
M  V30 7 1 8 4
M  V30 8 1 5 9
M  V30 9 1 6 10
M  V30 10 2 6 11
M  V30 11 1 8 12 CFG=3
M  V30 12 1 8 13
M  V30 13 2 9 14
M  V30 14 1 12 15
M  V30 15 2 13 16
M  V30 16 1 13 17
M  V30 17 2 15 18
M  V30 18 1 15 19
M  V30 19 1 16 20
M  V30 20 2 17 21
M  V30 21 1 18 22
M  V30 22 2 19 23
M  V30 23 2 20 24
M  V30 24 2 22 25
M  V30 25 2 7 10
M  V30 26 1 11 14
M  V30 27 1 21 24
M  V30 28 1 23 25
M  V30 END BOND
M  V30 BEGIN COLLECTION
M  V30 MDLV30/STERAC1 ATOMS=(1 8)
M  V30 END COLLECTION
M  V30 END CTAB
M  END
>  <Column 1>
208

>  <Column 2>
PandemicResponseBox - Plate C

>  <Column 3>
H07

>  <Column 4>
MMV565773

>  <Column 5>
10 mM

>  <Column 6>
ANTIBACTERIALS

>  <Column 7>


>  <Column 8>
None

>  <Column 9>
NSC 84094

>  <Column 10>
Oc1c(ccc2cccnc12)C(Nc3ccccn3)c4ccccc4

>  <Column 11>
CHEMBL1688558

>  <Column 12>


>  <Column 13>
327.4

>  <Column 14>
C21H17N3O

>  <Tox-Glu>
ATCTOX

>  <Column 15>


>  <Column 16>
59 

>  <Column 17>
23 

>  <Column 18>
3 

>  <Column 19>


>  <Tox-Gal>
CTOXGAL

>  <Column 20>


>  <Column 21>
63 

>  <Column 22>
29 

>  <Column 23>
2 

>  <Column 24>


>  <Column 25>


>  <PAMPA>
PAMPA

>  <Column 26>
248

>  <Column 27>


>  <Column 28>


>  <Mouse>
ATMETMOU

>  <Column 29>


>  <Column 30>
Not determined; Broad Peak

$$$$
Compound 210
Actelion Java MolfileCreator 2.0

  0  0  0  0  0  0              0 V3000
M  V30 BEGIN CTAB
M  V30 COUNTS 22 26 0 0 0
M  V30 BEGIN ATOM
M  V30 1 O 1.4911 1.32 0.0 0
M  V30 2 C 1.6834 0.3386 0.0 0
M  V30 3 N 0.9297 -0.3185 0.0 0
M  V30 4 C 2.6295 0.0145 0.0 0
M  V30 5 C 0.0 0.0 0.0 0
M  V30 6 N 2.9233 -0.9412 0.0 0
M  V30 7 C 3.4477 0.5894 0.0 0
M  V30 8 C 0.0172 1.0847 0.0 0
M  V30 9 C -0.7406 -0.2764 0.0 0
M  V30 10 C -0.5768 -0.749 0.0 0
M  V30 11 C 3.9232 -0.9571 0.0 0
M  V30 12 C 4.2473 -0.0111 0.0 0
M  V30 13 C -0.9986 1.4291 0.0 0
M  V30 14 C -1.9199 0.0655 0.0 0
M  V30 15 C -1.5588 -0.4611 0.0 0
M  V30 16 C 4.5804 -1.7108 0.0 0
M  V30 17 C 5.2286 0.1811 0.0 0
M  V30 18 C -1.8677 1.1055 0.0 0
M  V30 19 C -1.461 0.7879 0.0 0
M  V30 20 C -2.4708 -0.7059 0.0 0
M  V30 21 C 5.5618 -1.5185 0.0 0
M  V30 22 C 5.8859 -0.5724 0.0 0
M  V30 END ATOM
M  V30 BEGIN BOND
M  V30 1 2 1 2
M  V30 2 1 2 3
M  V30 3 1 2 4
M  V30 4 1 3 5
M  V30 5 1 4 6
M  V30 6 2 4 7
M  V30 7 1 5 8
M  V30 8 1 5 9
M  V30 9 1 5 10
M  V30 10 1 6 11
M  V30 11 1 7 12
M  V30 12 1 8 13
M  V30 13 1 9 14
M  V30 14 1 10 15
M  V30 15 1 11 16
M  V30 16 1 12 17
M  V30 17 1 13 18
M  V30 18 1 13 19
M  V30 19 1 14 20
M  V30 20 2 16 21
M  V30 21 2 17 22
M  V30 22 2 11 12
M  V30 23 1 14 18
M  V30 24 1 15 19
M  V30 25 1 15 20
M  V30 26 1 21 22
M  V30 END BOND
M  V30 END CTAB
M  END
>  <Column 1>
209

>  <Column 2>
PandemicResponseBox - Plate C

>  <Column 3>
A08

>  <Column 4>
MMV1578577

>  <Column 5>
10 mM

>  <Column 6>
ANTIBACTERIALS

>  <Column 7>


>  <Column 8>
None

>  <Column 9>
GW611920X

>  <Column 10>
O=C(NC12CC3CC(CC(C3)C1)C2)c4cc5ccccc5[nH]4

>  <Column 11>
CHEMBL2098107

>  <Column 12>


>  <Column 13>
294.4

>  <Column 14>
C19 H22 N2 O

>  <Tox-Glu>
ATCTOX

>  <Column 15>


>  <Column 16>
96 

>  <Column 17>
89 

>  <Column 18>
62 

>  <Column 19>


>  <Tox-Gal>
CTOXGAL

>  <Column 20>


>  <Column 21>
94 

>  <Column 22>
90 

>  <Column 23>
77 

>  <Column 24>


>  <Column 25>


>  <PAMPA>
PAMPA

>  <Column 26>
202

>  <Column 27>


>  <Column 28>


>  <Mouse>
ATMETMOU

>  <Column 29>
265

>  <Column 30>


$$$$
Compound 211
Actelion Java MolfileCreator 2.0

  0  0  0  0  0  0              0 V3000
M  V30 BEGIN CTAB
M  V30 COUNTS 21 23 0 0 0
M  V30 BEGIN ATOM
M  V30 1 S 2.598 -0.75 0.0 0
M  V30 2 O 1.848 -2.049 0.0 0
M  V30 3 O 3.348 -2.049 0.0 0
M  V30 4 N 1.299 0.0 0.0 0
M  V30 5 C 3.8971 0.0 0.0 0
M  V30 6 C 0.0 -0.75 0.0 0
M  V30 7 C 5.1961 -0.75 0.0 0
M  V30 8 C 3.8971 1.5 0.0 0
M  V30 9 C -1.299 0.0 0.0 0
M  V30 10 C 0.0 -2.25 0.0 0
M  V30 11 C 6.4952 0.0 0.0 0
M  V30 12 C 5.1961 2.25 0.0 0
M  V30 13 N -1.299 1.5 0.0 0
M  V30 14 C -2.598 -0.75 0.0 0
M  V30 15 C -1.299 -3.0 0.0 0
M  V30 16 C 6.4952 1.5 0.0 0
M  V30 17 C -2.598 2.25 0.0 0
M  V30 18 C -3.8971 0.0 0.0 0
M  V30 19 C -2.598 -2.25 0.0 0
M  V30 20 C 7.7942 2.25 0.0 0
M  V30 21 C -3.8971 1.5 0.0 0
M  V30 END ATOM
M  V30 BEGIN BOND
M  V30 1 2 1 2
M  V30 2 2 1 3
M  V30 3 1 1 4
M  V30 4 1 1 5
M  V30 5 1 4 6
M  V30 6 2 5 7
M  V30 7 1 5 8
M  V30 8 1 6 9
M  V30 9 2 6 10
M  V30 10 1 7 11
M  V30 11 2 8 12
M  V30 12 2 9 13
M  V30 13 1 9 14
M  V30 14 1 10 15
M  V30 15 2 11 16
M  V30 16 1 13 17
M  V30 17 2 14 18
M  V30 18 1 14 19
M  V30 19 1 16 20
M  V30 20 2 17 21
M  V30 21 1 12 16
M  V30 22 2 15 19
M  V30 23 1 18 21
M  V30 END BOND
M  V30 END CTAB
M  END
>  <Column 1>
210

>  <Column 2>
PandemicResponseBox - Plate C

>  <Column 3>
B08

>  <Column 4>
MMV233495

>  <Column 5>
10 mM

>  <Column 6>
ANTIBACTERIALS

>  <Column 7>


>  <Column 8>
None

>  <Column 9>
8-p-Tosylaminoquinoline

>  <Column 10>
[S](=O)(=O)(NC1=CC=CC2=CC=CN=C12)C3=CC=C(C)C=C3

>  <Column 11>
CHEMBL1487635

>  <Column 12>


>  <Column 13>
298.4

>  <Column 14>
C16H14N2O2S

>  <Tox-Glu>
ATCTOX

>  <Column 15>


>  <Column 16>
46 

>  <Column 17>
53 

>  <Column 18>
46 

>  <Column 19>


>  <Tox-Gal>
CTOXGAL

>  <Column 20>


>  <Column 21>
85 

>  <Column 22>
62 

>  <Column 23>
1 

>  <Column 24>


>  <Column 25>


>  <PAMPA>
PAMPA

>  <Column 26>
280

>  <Column 27>


>  <Column 28>


>  <Mouse>
ATMETMOU

>  <Column 29>
>768

>  <Column 30>


$$$$
Compound 212
Actelion Java MolfileCreator 2.0

  0  0  0  0  0  0              0 V3000
M  V30 BEGIN CTAB
M  V30 COUNTS 25 27 0 0 0
M  V30 BEGIN ATOM
M  V30 1 O 3.9818 0.0 0.0 0
M  V30 2 C 2.6545 -0.7663 0.0 0
M  V30 3 O 2.8188 -2.2003 0.0 0
M  V30 4 C 1.3272 0.0 0.0 0
M  V30 5 C 3.9818 -3.0652 0.0 0 CFG=2
M  V30 6 O 1.3272 1.5326 0.0 0
M  V30 7 C 1.3272 -1.5326 0.0 0
M  V30 8 C 0.0 -0.7663 0.0 0
M  V30 9 C 5.3091 -2.2989 0.0 0
M  V30 10 C 3.9818 -4.5978 0.0 0
M  V30 11 C 0.196 -2.3096 0.0 0
M  V30 12 C 2.326 -2.496 0.0 0
M  V30 13 C -1.3272 0.0 0.0 0
M  V30 14 C -0.3761 -2.3501 0.0 0
M  V30 15 N 6.6364 -3.0652 0.0 0 CHG=1
M  V30 16 C 5.3091 -5.3641 0.0 0
M  V30 17 C 0.0 -3.8315 0.0 0
M  V30 18 C 2.6545 -3.8315 0.0 0
M  V30 19 C -2.6545 -0.7663 0.0 0
M  V30 20 C -1.3272 -3.0652 0.0 0
M  V30 21 C 6.6364 -4.5978 0.0 0
M  V30 22 C 7.4026 -1.7379 0.0 0
M  V30 23 C 8.1689 -3.0652 0.0 0
M  V30 24 C 1.3272 -4.5978 0.0 0
M  V30 25 C -2.6545 -2.2989 0.0 0
M  V30 END ATOM
M  V30 BEGIN BOND
M  V30 1 2 1 2
M  V30 2 1 2 3
M  V30 3 1 2 4
M  V30 4 1 5 3 CFG=3
M  V30 5 1 4 6
M  V30 6 1 4 7
M  V30 7 1 4 8
M  V30 8 1 5 9
M  V30 9 1 5 10
M  V30 10 2 7 11
M  V30 11 1 7 12
M  V30 12 2 8 13
M  V30 13 1 8 14
M  V30 14 1 9 15
M  V30 15 1 10 16
M  V30 16 1 11 17
M  V30 17 2 12 18
M  V30 18 1 13 19
M  V30 19 2 14 20
M  V30 20 1 15 21
M  V30 21 1 15 22
M  V30 22 1 15 23
M  V30 23 2 17 24
M  V30 24 2 19 25
M  V30 25 1 16 21
M  V30 26 1 18 24
M  V30 27 1 20 25
M  V30 END BOND
M  V30 BEGIN COLLECTION
M  V30 MDLV30/STERAC1 ATOMS=(1 5)
M  V30 END COLLECTION
M  V30 END CTAB
M  END
>  <Column 1>
211

>  <Column 2>
PandemicResponseBox - Plate C

>  <Column 3>
C08

>  <Column 4>
MMV002676

>  <Column 5>
10 mM

>  <Column 6>
ANTIBACTERIALS

>  <Column 7>
1

>  <Column 8>
Bromide

>  <Column 9>
Mepenzolate

>  <Column 10>
C[N+]1(C)CCCC(C1)OC(=O)C(O)(C2=CC=CC=C2)C3=CC=CC=C3

>  <Column 11>
CHEMBL524004

>  <Column 12>


>  <Column 13>
420.3

>  <Column 14>
C21H26NO3

>  <Tox-Glu>
ATCTOX

>  <Column 15>


>  <Column 16>
89 

>  <Column 17>
94 

>  <Column 18>
92 

>  <Column 19>


>  <Tox-Gal>
CTOXGAL

>  <Column 20>


>  <Column 21>
92 

>  <Column 22>
91 

>  <Column 23>
91 

>  <Column 24>


>  <Column 25>


>  <PAMPA>
PAMPA

>  <Column 26>
<1

>  <Column 27>


>  <Column 28>


>  <Mouse>
ATMETMOU

>  <Column 29>
46

>  <Column 30>


$$$$
Compound 213
Actelion Java MolfileCreator 2.0

  0  0  0  0  0  0              0 V3000
M  V30 BEGIN CTAB
M  V30 COUNTS 26 28 0 0 0
M  V30 BEGIN ATOM
M  V30 1 S 2.598 1.0 0.0 0
M  V30 2 O 3.598 1.0 0.0 0
M  V30 3 O 1.598 0.9999 0.0 0
M  V30 4 O 2.598 2.0 0.0 0
M  V30 5 C 2.598 0.0 0.0 0
M  V30 6 C 1.732 -0.5 0.0 0
M  V30 7 C 3.4641 -0.4999 0.0 0
M  V30 8 C 1.732 -1.5 0.0 0
M  V30 9 C 0.866 0.0 0.0 0
M  V30 10 C 3.4641 -1.4999 0.0 0
M  V30 11 C 2.598 -1.9999 0.0 0
M  V30 12 C 0.866 1.0 0.0 0
M  V30 13 C 0.0 -0.5 0.0 0
M  V30 14 C 4.3301 -1.9999 0.0 0 CFG=2
M  V30 15 C 2.598 -2.9999 0.0 0
M  V30 16 C 4.3301 -2.9999 0.0 0 CFG=1
M  V30 17 C 5.1961 -1.4999 0.0 0
M  V30 18 C 4.3301 -0.9999 0.0 0
M  V30 19 C 3.4641 -3.4999 0.0 0
M  V30 20 C 5.1961 -3.4999 0.0 0 CFG=2
M  V30 21 C 6.0621 -1.9999 0.0 0
M  V30 22 C 5.1961 -4.4999 0.0 0
M  V30 23 C 6.0621 -2.9999 0.0 0
M  V30 24 C 4.3301 -3.9999 0.0 0
M  V30 25 O 6.0621 -4.9999 0.0 0
M  V30 26 O 4.3301 -4.9999 0.0 0
M  V30 END ATOM
M  V30 BEGIN BOND
M  V30 1 2 1 2
M  V30 2 2 1 3
M  V30 3 1 1 4
M  V30 4 1 1 5
M  V30 5 2 5 6
M  V30 6 1 5 7
M  V30 7 1 6 8
M  V30 8 1 6 9
M  V30 9 2 7 10
M  V30 10 2 8 11
M  V30 11 1 9 12
M  V30 12 1 9 13
M  V30 13 1 14 10
M  V30 14 1 11 15
M  V30 15 1 16 14
M  V30 16 1 14 17
M  V30 17 1 14 18 CFG=3
M  V30 18 1 15 19
M  V30 19 1 20 16
M  V30 20 1 17 21
M  V30 21 1 20 22
M  V30 22 1 20 23
M  V30 23 1 20 24 CFG=3
M  V30 24 2 22 25
M  V30 25 1 22 26
M  V30 26 1 10 11
M  V30 27 1 16 19 CFG=3
M  V30 28 1 21 23
M  V30 END BOND
M  V30 BEGIN COLLECTION
M  V30 MDLV30/STEABS ATOMS=(3 14 16 20)
M  V30 END COLLECTION
M  V30 END CTAB
M  END
>  <Column 1>
212

>  <Column 2>
PandemicResponseBox - Plate C

>  <Column 3>
D08

>  <Column 4>
MMV1633675

>  <Column 5>
10 mM

>  <Column 6>
ANTIBACTERIALS

>  <Column 7>


>  <Column 8>
None

>  <Column 9>
Ecabet

>  <Column 10>
CC(C)c1cc2CC[C@H]3[C@@](C)(CCC[C@]3(C)c2cc1S(=O)(=O)O)C(=O)O

>  <Column 11>
CHEMBL2104585

>  <Column 12>


>  <Column 13>
380.5

>  <Column 14>
C20 H28 O5 S

>  <Tox-Glu>
ATCTOX

>  <Column 15>


>  <Column 16>
91 

>  <Column 17>
96 

>  <Column 18>
93 

>  <Column 19>


>  <Tox-Gal>
CTOXGAL

>  <Column 20>


>  <Column 21>
93 

>  <Column 22>
97 

>  <Column 23>
96 

>  <Column 24>


>  <Column 25>


>  <PAMPA>
PAMPA

>  <Column 26>
<9

>  <Column 27>


>  <Column 28>


>  <Mouse>
ATMETMOU

>  <Column 29>
-21

>  <Column 30>


$$$$
Compound 214
Actelion Java MolfileCreator 2.0

  0  0  0  0  0  0              0 V3000
M  V30 BEGIN CTAB
M  V30 COUNTS 30 32 0 0 0
M  V30 BEGIN ATOM
M  V30 1 S 6.4951 1.5 0.0 0
M  V30 2 O 4.9952 1.4999 0.0 0
M  V30 3 O 5.7452 2.799 0.0 0
M  V30 4 N 6.4951 0.0 0.0 0
M  V30 5 C 7.7942 2.25 0.0 0
M  V30 6 C 5.1961 -0.75 0.0 0 CFG=2
M  V30 7 C 7.7942 3.75 0.0 0
M  V30 8 C 9.0932 1.5 0.0 0
M  V30 9 C 3.8971 0.0 0.0 0
M  V30 10 C 5.1961 -2.25 0.0 0
M  V30 11 C 9.0932 4.5 0.0 0
M  V30 12 C 10.3923 2.25 0.0 0
M  V30 13 O 3.8971 1.5 0.0 0
M  V30 14 N 2.598 -0.75 0.0 0
M  V30 15 C 3.8971 -3.0 0.0 0
M  V30 16 C 6.4951 -3.0 0.0 0
M  V30 17 S 9.4051 5.9672 0.0 0
M  V30 18 C 10.3923 3.75 0.0 0
M  V30 19 C 1.299 0.0 0.0 0
M  V30 20 C 10.8969 6.124 0.0 0
M  V30 21 N 11.507 4.7537 0.0 0
M  V30 22 C 0.0 -0.75 0.0 0
M  V30 23 C 11.6469 7.423 0.0 0
M  V30 24 C -1.299 0.0 0.0 0
M  V30 25 C 0.0 -2.25 0.0 0
M  V30 26 C -2.598 -0.75 0.0 0
M  V30 27 C -1.299 -3.0 0.0 0
M  V30 28 C -2.598 -2.25 0.0 0
M  V30 29 O -3.8971 -3.0 0.0 0
M  V30 30 C -3.8971 -4.5 0.0 0
M  V30 END ATOM
M  V30 BEGIN BOND
M  V30 1 2 1 2
M  V30 2 2 1 3
M  V30 3 1 1 4
M  V30 4 1 1 5
M  V30 5 1 6 4 CFG=1
M  V30 6 2 5 7
M  V30 7 1 5 8
M  V30 8 1 6 9
M  V30 9 1 6 10
M  V30 10 1 7 11
M  V30 11 2 8 12
M  V30 12 2 9 13
M  V30 13 1 9 14
M  V30 14 1 10 15
M  V30 15 1 10 16
M  V30 16 1 11 17
M  V30 17 2 11 18
M  V30 18 1 14 19
M  V30 19 1 17 20
M  V30 20 1 18 21
M  V30 21 1 19 22
M  V30 22 1 20 23
M  V30 23 2 22 24
M  V30 24 1 22 25
M  V30 25 1 24 26
M  V30 26 2 25 27
M  V30 27 2 26 28
M  V30 28 1 28 29
M  V30 29 1 29 30
M  V30 30 1 12 18
M  V30 31 2 20 21
M  V30 32 1 27 28
M  V30 END BOND
M  V30 BEGIN COLLECTION
M  V30 MDLV30/STERAC1 ATOMS=(1 6)
M  V30 END COLLECTION
M  V30 END CTAB
M  END
>  <Column 1>
213

>  <Column 2>
PandemicResponseBox - Plate C

>  <Column 3>
E08

>  <Column 4>
MMV303733

>  <Column 5>
10 mM

>  <Column 6>
ANTIBACTERIALS

>  <Column 7>


>  <Column 8>
None

>  <Column 9>


>  <Column 10>
COc1ccc(CNC(=O)C(NS(=O)(=O)c2ccc3nc(C)sc3c2)C(C)C)cc1

>  <Column 11>
CHEMBL1823947

>  <Column 12>


>  <Column 13>
447.6

>  <Column 14>
C21H25N3O4S2

>  <Tox-Glu>
ATCTOX

>  <Column 15>


>  <Column 16>
96 

>  <Column 17>
98 

>  <Column 18>
84 

>  <Column 19>


>  <Tox-Gal>
CTOXGAL

>  <Column 20>


>  <Column 21>
97 

>  <Column 22>
100 

>  <Column 23>
92 

>  <Column 24>


>  <Column 25>


>  <PAMPA>
PAMPA

>  <Column 26>
182

>  <Column 27>


>  <Column 28>


>  <Mouse>
ATMETMOU

>  <Column 29>
130

>  <Column 30>


$$$$
Compound 215
Actelion Java MolfileCreator 2.0

  0  0  0  0  0  0              0 V3000
M  V30 BEGIN CTAB
M  V30 COUNTS 9 9 0 0 0
M  V30 BEGIN ATOM
M  V30 1 O 2.598 -0.75 0.0 0
M  V30 2 C 1.299 0.0 0.0 0
M  V30 3 N 1.299 1.5 0.0 0
M  V30 4 C 0.0 -0.75 0.0 0
M  V30 5 N -1.299 0.0 0.0 0
M  V30 6 C 0.0 -2.25 0.0 0
M  V30 7 C -2.598 -0.7499 0.0 0
M  V30 8 N -1.299 -2.9999 0.0 0
M  V30 9 C -2.598 -2.2499 0.0 0
M  V30 END ATOM
M  V30 BEGIN BOND
M  V30 1 2 1 2
M  V30 2 1 2 3
M  V30 3 1 2 4
M  V30 4 2 4 5
M  V30 5 1 4 6
M  V30 6 1 5 7
M  V30 7 2 6 8
M  V30 8 2 7 9
M  V30 9 1 8 9
M  V30 END BOND
M  V30 END CTAB
M  END
>  <Column 1>
214

>  <Column 2>
PandemicResponseBox - Plate C

>  <Column 3>
F08

>  <Column 4>
MMV003249

>  <Column 5>
10 mM

>  <Column 6>
ANTIBACTERIALS

>  <Column 7>


>  <Column 8>
None

>  <Column 9>
Pyrazinamide

>  <Column 10>
NC(=O)c1cnccn1

>  <Column 11>
CHEMBL614

>  <Column 12>


>  <Column 13>
123.1

>  <Column 14>
C5H5N3O

>  <Tox-Glu>
ATCTOX

>  <Column 15>


>  <Column 16>
92 

>  <Column 17>
98 

>  <Column 18>
90 

>  <Column 19>


>  <Tox-Gal>
CTOXGAL

>  <Column 20>


>  <Column 21>
97 

>  <Column 22>
99 

>  <Column 23>
99 

>  <Column 24>


>  <Column 25>


>  <PAMPA>
PAMPA

>  <Column 26>
undetected

>  <Column 27>
low sensitivity

>  <Column 28>


>  <Mouse>
ATMETMOU

>  <Column 29>


>  <Column 30>
Not determined; Low sensitivity

$$$$
Compound 216
Actelion Java MolfileCreator 2.0

  0  0  0  0  0  0              0 V3000
M  V30 BEGIN CTAB
M  V30 COUNTS 25 27 0 0 0
M  V30 BEGIN ATOM
M  V30 1 S 0.866 0.9999 0.0 0 CFG=2
M  V30 2 O 1.732 1.4999 0.0 0
M  V30 3 C 0.0 1.5 0.0 0
M  V30 4 C 0.866 0.0 0.0 0
M  V30 5 N -0.9135 1.0932 0.0 0
M  V30 6 N -0.1045 2.4945 0.0 0
M  V30 7 C 0.0 -0.5 0.0 0
M  V30 8 C -1.5826 1.8364 0.0 0
M  V30 9 C -1.0826 2.7024 0.0 0
M  V30 10 N -0.866 0.0 0.0 0
M  V30 11 C 0.0 -1.4999 0.0 0
M  V30 12 C -2.5826 1.8364 0.0 0
M  V30 13 C -1.5826 3.5684 0.0 0
M  V30 14 C -1.732 -0.4999 0.0 0
M  V30 15 C -0.866 -1.9999 0.0 0
M  V30 16 C 0.866 -2.0 0.0 0
M  V30 17 C -3.0826 2.7024 0.0 0
M  V30 18 C -2.5826 3.5684 0.0 0
M  V30 19 C -1.732 -1.4999 0.0 0
M  V30 20 O -0.866 -2.9999 0.0 0
M  V30 21 C -1.732 -3.4999 0.0 0
M  V30 22 C -1.732 -4.4999 0.0 0
M  V30 23 F -0.732 -4.4999 0.0 0
M  V30 24 F -1.732 -5.4999 0.0 0
M  V30 25 F -2.732 -4.4999 0.0 0
M  V30 END ATOM
M  V30 BEGIN BOND
M  V30 1 2 1 2
M  V30 2 1 1 3
M  V30 3 1 1 4 CFG=1
M  V30 4 2 3 5
M  V30 5 1 3 6
M  V30 6 1 4 7
M  V30 7 1 5 8
M  V30 8 1 6 9
M  V30 9 2 7 10
M  V30 10 1 7 11
M  V30 11 1 8 12
M  V30 12 1 9 13
M  V30 13 1 10 14
M  V30 14 2 11 15
M  V30 15 1 11 16
M  V30 16 2 12 17
M  V30 17 2 13 18
M  V30 18 2 14 19
M  V30 19 1 15 20
M  V30 20 1 20 21
M  V30 21 1 21 22
M  V30 22 1 22 23
M  V30 23 1 22 24
M  V30 24 1 22 25
M  V30 25 2 8 9
M  V30 26 1 15 19
M  V30 27 1 17 18
M  V30 END BOND
M  V30 BEGIN COLLECTION
M  V30 MDLV30/STERAC1 ATOMS=(1 1)
M  V30 END COLLECTION
M  V30 END CTAB
M  END
>  <Column 1>
215

>  <Column 2>
PandemicResponseBox - Plate C

>  <Column 3>
G08

>  <Column 4>
MMV001438

>  <Column 5>
10 mM

>  <Column 6>
ANTIBACTERIALS

>  <Column 7>


>  <Column 8>
None

>  <Column 9>
Lansoprazole

>  <Column 10>
Cc1c(OCC(F)(F)F)ccnc1CS(=O)c2nc3ccccc3[nH]2

>  <Column 11>
CHEMBL480

>  <Column 12>


>  <Column 13>
369.4

>  <Column 14>
C16H14F3N3O2S

>  <Tox-Glu>
ATCTOX

>  <Column 15>


>  <Column 16>
94 

>  <Column 17>
97 

>  <Column 18>
46 

>  <Column 19>


>  <Tox-Gal>
CTOXGAL

>  <Column 20>


>  <Column 21>
98 

>  <Column 22>
87 

>  <Column 23>
4 

>  <Column 24>


>  <Column 25>


>  <PAMPA>
PAMPA

>  <Column 26>
226

>  <Column 27>


>  <Column 28>


>  <Mouse>
ATMETMOU

>  <Column 29>
61

>  <Column 30>


$$$$
Compound 217
Actelion Java MolfileCreator 2.0

  0  0  0  0  0  0              0 V3000
M  V30 BEGIN CTAB
M  V30 COUNTS 21 22 0 0 0
M  V30 BEGIN ATOM
M  V30 1 Cl 3.4641 -1.4999 0.0 0
M  V30 2 C 3.4641 -0.4999 0.0 0
M  V30 3 C 4.3301 0.0 0.0 0
M  V30 4 C 2.598 0.0 0.0 0
M  V30 5 F 5.1961 -0.5 0.0 0
M  V30 6 C 4.3301 1.0 0.0 0
M  V30 7 N 1.732 -0.5 0.0 0
M  V30 8 C 2.598 1.0 0.0 0
M  V30 9 C 5.1961 1.4999 0.0 0
M  V30 10 C 3.4641 1.5 0.0 0
M  V30 11 C 0.866 0.0 0.0 0
M  V30 12 C 1.732 1.4999 0.0 0
M  V30 13 N 6.0621 1.9999 0.0 0
M  V30 14 F 3.4641 2.5 0.0 0
M  V30 15 C 0.0 -0.5 0.0 0
M  V30 16 N 0.866 2.0 0.0 0
M  V30 17 C -0.866 0.0 0.0 0
M  V30 18 C 0.0 -1.4999 0.0 0
M  V30 19 C -1.732 -0.4999 0.0 0
M  V30 20 C -0.866 -1.9999 0.0 0
M  V30 21 C -1.732 -1.4999 0.0 0
M  V30 END ATOM
M  V30 BEGIN BOND
M  V30 1 1 1 2
M  V30 2 2 2 3
M  V30 3 1 2 4
M  V30 4 1 3 5
M  V30 5 1 3 6
M  V30 6 1 4 7
M  V30 7 2 4 8
M  V30 8 1 6 9
M  V30 9 2 6 10
M  V30 10 1 7 11
M  V30 11 1 8 12
M  V30 12 3 9 13
M  V30 13 1 10 14
M  V30 14 1 11 15
M  V30 15 3 12 16
M  V30 16 2 15 17
M  V30 17 1 15 18
M  V30 18 1 17 19
M  V30 19 2 18 20
M  V30 20 2 19 21
M  V30 21 1 8 10
M  V30 22 1 20 21
M  V30 END BOND
M  V30 END CTAB
M  END
>  <Column 1>
216

>  <Column 2>
PandemicResponseBox - Plate C

>  <Column 3>
H08

>  <Column 4>
MMV1582496

>  <Column 5>
10 mM

>  <Column 6>
ANTIBACTERIALS

>  <Column 7>


>  <Column 8>
None

>  <Column 9>


>  <Column 10>
Fc1c(Cl)c(NCc2ccccc2)c(C#N)c(F)c1C#N

>  <Column 11>
CHEMBL2377512

>  <Column 12>
�Bioorganic & Medicinal Chemistry Letters�(2013),�23(8),�2399-2403.

>  <Column 13>
303.7

>  <Column 14>
C15 H8 Cl F2 N3

>  <Tox-Glu>
ATCTOX

>  <Column 15>


>  <Column 16>
1 

>  <Column 17>
1 

>  <Column 18>
0 

>  <Column 19>


>  <Tox-Gal>
CTOXGAL

>  <Column 20>


>  <Column 21>
1 

>  <Column 22>
1 

>  <Column 23>
0 

>  <Column 24>


>  <Column 25>


>  <PAMPA>
PAMPA

>  <Column 26>
133

>  <Column 27>


>  <Column 28>


>  <Mouse>
ATMETMOU

>  <Column 29>
525

>  <Column 30>


$$$$
Compound 218
Actelion Java MolfileCreator 2.0

  0  0  0  0  0  0              0 V3000
M  V30 BEGIN CTAB
M  V30 COUNTS 23 25 0 0 0
M  V30 BEGIN ATOM
M  V30 1 N 2.598 -1.9999 0.0 0
M  V30 2 C 3.4641 -1.5 0.0 0
M  V30 3 C 1.732 -1.5 0.0 0
M  V30 4 N 3.4641 -0.5 0.0 0
M  V30 5 N 4.3301 -2.0 0.0 0
M  V30 6 N 0.866 -2.0 0.0 0
M  V30 7 C 1.732 -0.5 0.0 0
M  V30 8 C 2.598 0.0 0.0 0
M  V30 9 C 0.866 0.0 0.0 0
M  V30 10 C 0.0 -0.5 0.0 0
M  V30 11 C -0.866 0.0 0.0 0
M  V30 12 C 0.0 -1.4999 0.0 0
M  V30 13 C -1.732 -0.4999 0.0 0
M  V30 14 C -0.866 -1.9999 0.0 0
M  V30 15 C -1.732 -1.4999 0.0 0
M  V30 16 C -2.598 0.0 0.0 0 CFG=2
M  V30 17 C -0.866 -2.9999 0.0 0
M  V30 18 N -2.598 -1.9999 0.0 0
M  V30 19 C -3.4641 -0.4999 0.0 0
M  V30 20 C -2.598 1.0 0.0 0
M  V30 21 C 0.0 -3.4999 0.0 0
M  V30 22 C -3.4641 -1.4999 0.0 0
M  V30 23 C -2.598 -2.9999 0.0 0
M  V30 END ATOM
M  V30 BEGIN BOND
M  V30 1 2 1 2
M  V30 2 1 1 3
M  V30 3 1 2 4
M  V30 4 1 2 5
M  V30 5 1 3 6
M  V30 6 2 3 7
M  V30 7 2 4 8
M  V30 8 1 7 9
M  V30 9 1 9 10
M  V30 10 2 10 11
M  V30 11 1 10 12
M  V30 12 1 11 13
M  V30 13 2 12 14
M  V30 14 2 13 15
M  V30 15 1 16 13
M  V30 16 1 14 17
M  V30 17 1 15 18
M  V30 18 1 16 19
M  V30 19 1 16 20 CFG=3
M  V30 20 1 17 21
M  V30 21 1 18 22
M  V30 22 1 18 23
M  V30 23 1 7 8
M  V30 24 1 14 15
M  V30 25 1 19 22
M  V30 END BOND
M  V30 BEGIN COLLECTION
M  V30 MDLV30/STERAC1 ATOMS=(1 16)
M  V30 END COLLECTION
M  V30 END CTAB
M  END
>  <Column 1>
217

>  <Column 2>
PandemicResponseBox - Plate C

>  <Column 3>
A09

>  <Column 4>
MMV1582490

>  <Column 5>
10 mM

>  <Column 6>
ANTIBACTERIALS

>  <Column 7>


>  <Column 8>
None

>  <Column 9>


>  <Column 10>
CCc1cc(Cc2cnc(N)nc2N)cc3C(C)CCN(C)c13

>  <Column 11>
CHEMBL57458

>  <Column 12>


>  <Column 13>
311.4

>  <Column 14>
C18 H25 N5

>  <Tox-Glu>
ATCTOX

>  <Column 15>


>  <Column 16>
92 

>  <Column 17>
82 

>  <Column 18>
4 

>  <Column 19>


>  <Tox-Gal>
CTOXGAL

>  <Column 20>


>  <Column 21>
98 

>  <Column 22>
95 

>  <Column 23>
0 

>  <Column 24>


>  <Column 25>


>  <PAMPA>
PAMPA

>  <Column 26>
360

>  <Column 27>


>  <Column 28>


>  <Mouse>
ATMETMOU

>  <Column 29>
208

>  <Column 30>


$$$$
Compound 219
Actelion Java MolfileCreator 2.0

  0  0  0  0  0  0              0 V3000
M  V30 BEGIN CTAB
M  V30 COUNTS 16 17 0 0 0
M  V30 BEGIN ATOM
M  V30 1 O 3.4641 2.5 0.0 0
M  V30 2 C 3.4641 1.5 0.0 0
M  V30 3 N 2.598 1.0 0.0 0
M  V30 4 N 4.3301 1.0 0.0 0
M  V30 5 C 2.598 0.0 0.0 0
M  V30 6 C 4.3301 0.0 0.0 0
M  V30 7 N 1.732 -0.5 0.0 0
M  V30 8 C 3.4641 -0.4999 0.0 0
M  V30 9 C 0.866 0.0 0.0 0
M  V30 10 C 3.4641 -1.5 0.0 0
M  V30 11 C 0.0 -0.5 0.0 0
M  V30 12 C -0.866 0.0 0.0 0
M  V30 13 C 0.0 -1.4999 0.0 0
M  V30 14 C -1.732 -0.4999 0.0 0
M  V30 15 C -0.866 -1.9999 0.0 0
M  V30 16 C -1.732 -1.4999 0.0 0
M  V30 END ATOM
M  V30 BEGIN BOND
M  V30 1 2 1 2
M  V30 2 1 2 3
M  V30 3 1 2 4
M  V30 4 2 3 5
M  V30 5 1 4 6
M  V30 6 1 5 7
M  V30 7 1 5 8
M  V30 8 1 7 9
M  V30 9 1 8 10
M  V30 10 1 9 11
M  V30 11 2 11 12
M  V30 12 1 11 13
M  V30 13 1 12 14
M  V30 14 2 13 15
M  V30 15 2 14 16
M  V30 16 2 6 8
M  V30 17 1 15 16
M  V30 END BOND
M  V30 END CTAB
M  END
>  <Column 1>
218

>  <Column 2>
PandemicResponseBox - Plate C

>  <Column 3>
B09

>  <Column 4>
MMV1582489

>  <Column 5>
10 mM

>  <Column 6>
ANTIBACTERIALS

>  <Column 7>


>  <Column 8>
None

>  <Column 9>


>  <Column 10>
CC1=CNC(=O)N=C1NCc2ccccc2

>  <Column 11>
CHEMBL2063060

>  <Column 12>


>  <Column 13>
215.3

>  <Column 14>
C12 H13 N3 O

>  <Tox-Glu>
ATCTOX

>  <Column 15>


>  <Column 16>
93 

>  <Column 17>
100 

>  <Column 18>
96 

>  <Column 19>


>  <Tox-Gal>
CTOXGAL

>  <Column 20>


>  <Column 21>
104 

>  <Column 22>
106 

>  <Column 23>
107 

>  <Column 24>


>  <Column 25>


>  <PAMPA>
PAMPA

>  <Column 26>
9

>  <Column 27>


>  <Column 28>


>  <Mouse>
ATMETMOU

>  <Column 29>
-9

>  <Column 30>


$$$$
Compound 220
Actelion Java MolfileCreator 2.0

  0  0  0  0  0  0              0 V3000
M  V30 BEGIN CTAB
M  V30 COUNTS 38 42 0 0 0
M  V30 BEGIN ATOM
M  V30 1 S 3.8971 0.0 0.0 0
M  V30 2 O 4.6471 1.299 0.0 0
M  V30 3 O 3.1471 1.299 0.0 0
M  V30 4 O 5.1961 -0.75 0.0 0
M  V30 5 N 2.598 -0.75 0.0 0
M  V30 6 C 6.4951 0.0 0.0 0
M  V30 7 C 1.299 0.0 0.0 0
M  V30 8 C 7.7942 -0.75 0.0 0 CFG=1
M  V30 9 O 1.299 1.5 0.0 0
M  V30 10 C 0.0 -0.75 0.0 0
M  V30 11 O 7.951 -2.2417 0.0 0
M  V30 12 C 9.1645 -0.1398 0.0 0 CFG=1
M  V30 13 C -1.299 0.0 0.0 0
M  V30 14 C 0.0 -2.25 0.0 0
M  V30 15 C 9.4182 -2.5536 0.0 0 CFG=2
M  V30 16 O 9.4764 1.3273 0.0 0
M  V30 17 C 10.1682 -1.2546 0.0 0 CFG=2
M  V30 18 O -1.299 1.5 0.0 0
M  V30 19 C -2.598 -0.75 0.0 0
M  V30 20 C -1.299 -3.0 0.0 0
M  V30 21 N 10.0283 -3.9239 0.0 0
M  V30 22 O 11.66 -1.0978 0.0 0
M  V30 23 C -2.598 -2.25 0.0 0
M  V30 24 C 9.2783 -5.223 0.0 0
M  V30 25 C 11.4955 -4.2358 0.0 0
M  V30 26 N 7.8111 -5.5348 0.0 0
M  V30 27 C 10.282 -6.3377 0.0 0
M  V30 28 N 11.6523 -5.7276 0.0 0
M  V30 29 C 7.3476 -6.9614 0.0 0
M  V30 30 C 9.8185 -7.7643 0.0 0
M  V30 31 N 8.3513 -8.0761 0.0 0
M  V30 32 C 5.8803 -7.2733 0.0 0
M  V30 33 N 10.8222 -8.879 0.0 0
M  V30 34 C 4.8766 -6.1586 0.0 0
M  V30 35 C 5.4168 -8.6999 0.0 0
M  V30 36 C 3.4094 -6.4704 0.0 0
M  V30 37 C 3.9496 -9.0117 0.0 0
M  V30 38 C 2.9459 -7.897 0.0 0
M  V30 END ATOM
M  V30 BEGIN BOND
M  V30 1 2 1 2
M  V30 2 2 1 3
M  V30 3 1 1 4
M  V30 4 1 1 5
M  V30 5 1 4 6
M  V30 6 1 5 7
M  V30 7 1 8 6 CFG=3
M  V30 8 2 7 9
M  V30 9 1 7 10
M  V30 10 1 8 11
M  V30 11 1 12 8
M  V30 12 2 10 13
M  V30 13 1 10 14
M  V30 14 1 15 11
M  V30 15 1 12 16 CFG=1
M  V30 16 1 17 12
M  V30 17 1 13 18
M  V30 18 1 13 19
M  V30 19 2 14 20
M  V30 20 1 15 21 CFG=3
M  V30 21 1 17 22 CFG=1
M  V30 22 2 19 23
M  V30 23 1 21 24
M  V30 24 1 21 25
M  V30 25 2 24 26
M  V30 26 1 24 27
M  V30 27 2 25 28
M  V30 28 1 26 29
M  V30 29 2 27 30
M  V30 30 2 29 31
M  V30 31 1 29 32
M  V30 32 1 30 33
M  V30 33 2 32 34
M  V30 34 1 32 35
M  V30 35 1 34 36
M  V30 36 2 35 37
M  V30 37 2 36 38
M  V30 38 1 15 17
M  V30 39 1 20 23
M  V30 40 1 27 28
M  V30 41 1 30 31
M  V30 42 1 37 38
M  V30 END BOND
M  V30 BEGIN COLLECTION
M  V30 MDLV30/STEABS ATOMS=(4 8 12 15 17)
M  V30 END COLLECTION
M  V30 END CTAB
M  END
>  <Column 1>
219

>  <Column 2>
PandemicResponseBox - Plate C

>  <Column 3>
C09

>  <Column 4>
MMV1582488

>  <Column 5>
10 mM

>  <Column 6>
ANTIBACTERIALS

>  <Column 7>
1

>  <Column 8>
Hydrochloric acid

>  <Column 9>


>  <Column 10>
Nc1nc(nc2c1ncn2[C@@H]3O[C@H](COS(=O)(=O)NC(=O)c4ccccc4O)[C@@H](O)[C@H]3O)c5ccccc5

>  <Column 11>
CHEMBL1198605

>  <Column 12>


>  <Column 13>
579

>  <Column 14>
C23 H22 N6 O8 S

>  <Tox-Glu>
ATCTOX

>  <Column 15>


>  <Column 16>
97 

>  <Column 17>
101 

>  <Column 18>
96 

>  <Column 19>


>  <Tox-Gal>
CTOXGAL

>  <Column 20>


>  <Column 21>
106 

>  <Column 22>
108 

>  <Column 23>
108 

>  <Column 24>


>  <Column 25>


>  <PAMPA>
PAMPA

>  <Column 26>
<8

>  <Column 27>


>  <Column 28>


>  <Mouse>
ATMETMOU

>  <Column 29>
-16

>  <Column 30>


$$$$
Compound 221
Actelion Java MolfileCreator 2.0

  0  0  0  0  0  0              0 V3000
M  V30 BEGIN CTAB
M  V30 COUNTS 12 12 0 0 0
M  V30 BEGIN ATOM
M  V30 1 S 6.4951 -3.0 0.0 0
M  V30 2 O 5.7451 -4.299 0.0 0
M  V30 3 O 7.2451 -1.7009 0.0 0
M  V30 4 N 7.7942 -3.75 0.0 0
M  V30 5 C 5.1961 -2.2499 0.0 0
M  V30 6 C 5.1961 -0.75 0.0 0
M  V30 7 C 3.8971 -2.9999 0.0 0
M  V30 8 C 3.8971 0.0 0.0 0
M  V30 9 C 2.598 -2.25 0.0 0
M  V30 10 C 2.598 -0.75 0.0 0
M  V30 11 C 1.299 0.0 0.0 0
M  V30 12 N 0.0 -0.75 0.0 0
M  V30 END ATOM
M  V30 BEGIN BOND
M  V30 1 2 1 2
M  V30 2 2 1 3
M  V30 3 1 1 4
M  V30 4 1 1 5
M  V30 5 2 5 6
M  V30 6 1 5 7
M  V30 7 1 6 8
M  V30 8 2 7 9
M  V30 9 2 8 10
M  V30 10 1 10 11
M  V30 11 1 11 12
M  V30 12 1 9 10
M  V30 END BOND
M  V30 END CTAB
M  END
>  <Column 1>
220

>  <Column 2>
PandemicResponseBox - Plate C

>  <Column 3>
D09

>  <Column 4>
MMV002665

>  <Column 5>
10 mM

>  <Column 6>
ANTIBACTERIALS

>  <Column 7>


>  <Column 8>
None

>  <Column 9>
Mafenide

>  <Column 10>
NCc1ccc(cc1)S(=O)(=O)N

>  <Column 11>
CHEMBL419

>  <Column 12>


>  <Column 13>
186.2

>  <Column 14>
C7H10N2O2S

>  <Tox-Glu>
ATCTOX

>  <Column 15>


>  <Column 16>
97 

>  <Column 17>
103 

>  <Column 18>
96 

>  <Column 19>


>  <Tox-Gal>
CTOXGAL

>  <Column 20>


>  <Column 21>
99 

>  <Column 22>
105 

>  <Column 23>
106 

>  <Column 24>


>  <Column 25>


>  <PAMPA>
PAMPA

>  <Column 26>
undetected

>  <Column 27>
low sensitivity

>  <Column 28>


>  <Mouse>
ATMETMOU

>  <Column 29>


>  <Column 30>
Not determined; Low sensitivity

$$$$
Compound 222
Actelion Java MolfileCreator 2.0

  0  0  0  0  0  0              0 V3000
M  V30 BEGIN CTAB
M  V30 COUNTS 33 37 0 0 0
M  V30 BEGIN ATOM
M  V30 1 O 1.732 1.5 0.0 0
M  V30 2 C 2.598 1.0 0.0 0
M  V30 3 N 2.598 0.0 0.0 0
M  V30 4 N 3.4641 1.5 0.0 0
M  V30 5 C 3.4641 -0.4999 0.0 0
M  V30 6 C 1.732 -0.5 0.0 0
M  V30 7 C 4.3301 1.0 0.0 0
M  V30 8 C 3.4641 2.5 0.0 0
M  V30 9 N 3.672 -1.4781 0.0 0
M  V30 10 C 4.3301 0.0 0.0 0
M  V30 11 C 0.866 0.0 0.0 0
M  V30 12 O 5.1961 1.5 0.0 0
M  V30 13 N 4.6665 -1.5826 0.0 0
M  V30 14 C 5.0732 -0.6691 0.0 0
M  V30 15 C 0.866 1.0 0.0 0
M  V30 16 C 0.0 -0.5 0.0 0
M  V30 17 C 5.1665 -2.4487 0.0 0
M  V30 18 C 6.0514 -0.4612 0.0 0
M  V30 19 C 4.6665 -3.3147 0.0 0
M  V30 20 N 6.7945 -1.1303 0.0 0
M  V30 21 C 6.4581 0.4523 0.0 0
M  V30 22 C 3.6665 -3.3147 0.0 0
M  V30 23 C 5.1665 -4.1807 0.0 0
M  V30 24 C 7.6605 -0.6303 0.0 0
M  V30 25 C 6.69 -2.1248 0.0 0
M  V30 26 N 7.4526 0.3477 0.0 0
M  V30 27 C 3.1665 -4.1807 0.0 0
M  V30 28 C 3.1665 -2.4487 0.0 0
M  V30 29 C 4.6665 -5.0467 0.0 0
M  V30 30 C 3.6665 -5.0467 0.0 0
M  V30 31 C 2.1665 -4.1807 0.0 0
M  V30 32 C 2.1665 -2.4487 0.0 0
M  V30 33 C 1.6665 -3.3147 0.0 0
M  V30 END ATOM
M  V30 BEGIN BOND
M  V30 1 2 1 2
M  V30 2 1 2 3
M  V30 3 1 2 4
M  V30 4 1 3 5
M  V30 5 1 3 6
M  V30 6 1 4 7
M  V30 7 1 4 8
M  V30 8 2 5 9
M  V30 9 1 5 10
M  V30 10 1 6 11
M  V30 11 2 7 12
M  V30 12 1 9 13
M  V30 13 2 10 14
M  V30 14 1 11 15
M  V30 15 1 11 16
M  V30 16 1 13 17
M  V30 17 1 14 18
M  V30 18 1 17 19
M  V30 19 1 18 20
M  V30 20 2 18 21
M  V30 21 1 19 22
M  V30 22 2 19 23
M  V30 23 1 20 24
M  V30 24 1 20 25
M  V30 25 1 21 26
M  V30 26 1 22 27
M  V30 27 2 22 28
M  V30 28 1 23 29
M  V30 29 1 27 30
M  V30 30 2 27 31
M  V30 31 1 28 32
M  V30 32 1 31 33
M  V30 33 1 7 10
M  V30 34 1 13 14
M  V30 35 2 24 26
M  V30 36 2 29 30
M  V30 37 2 32 33
M  V30 END BOND
M  V30 END CTAB
M  END
>  <Column 1>
221

>  <Column 2>
PandemicResponseBox - Plate C

>  <Column 3>
E09

>  <Column 4>
MMV1581559

>  <Column 5>
10 mM

>  <Column 6>
ANTIBACTERIALS

>  <Column 7>


>  <Column 8>
None

>  <Column 9>


>  <Column 10>
CC(C)CN1C(=O)N(C)C(=O)c2c1nn(Cc3cccc4ccccc34)c2c5cncn5C

>  <Column 11>
CHEMBL2088120

>  <Column 12>


>  <Column 13>
442.5

>  <Column 14>
C25 H26 N6 O2

>  <Tox-Glu>
ATCTOX

>  <Column 15>


>  <Column 16>
91 

>  <Column 17>
84 

>  <Column 18>
1 

>  <Column 19>


>  <Tox-Gal>
CTOXGAL

>  <Column 20>


>  <Column 21>
96 

>  <Column 22>
90 

>  <Column 23>
1 

>  <Column 24>


>  <Column 25>


>  <PAMPA>
PAMPA

>  <Column 26>
497

>  <Column 27>


>  <Column 28>


>  <Mouse>
ATMETMOU

>  <Column 29>
99

>  <Column 30>


$$$$
Compound 223
Actelion Java MolfileCreator 2.0

  0  0  0  0  0  0              0 V3000
M  V30 BEGIN CTAB
M  V30 COUNTS 22 24 0 0 0
M  V30 BEGIN ATOM
M  V30 1 I 1.299 0.0 0.0 0
M  V30 2 C 0.0 -0.75 0.0 0
M  V30 3 C -1.299 0.0 0.0 0
M  V30 4 C 0.0 -2.2499 0.0 0
M  V30 5 O -1.299 1.5 0.0 0
M  V30 6 C -2.598 -0.7499 0.0 0
M  V30 7 O 1.299 -3.0 0.0 0
M  V30 8 C -1.299 -2.9999 0.0 0
M  V30 9 I -3.8971 0.0 0.0 0
M  V30 10 C -2.598 -2.2499 0.0 0
M  V30 11 C -1.299 -4.4999 0.0 0
M  V30 12 C -3.8971 -2.9999 0.0 0
M  V30 13 O 0.0 -5.2499 0.0 0
M  V30 14 C -2.598 -5.2499 0.0 0
M  V30 15 O -5.1961 -2.2499 0.0 0
M  V30 16 C -3.8971 -4.4999 0.0 0
M  V30 17 C -2.598 -6.7499 0.0 0
M  V30 18 C -5.1961 -5.2499 0.0 0
M  V30 19 O -1.299 -7.5 0.0 0
M  V30 20 C -3.8971 -7.4999 0.0 0
M  V30 21 C -5.1961 -6.7499 0.0 0
M  V30 22 C -6.4951 -7.4999 0.0 0
M  V30 END ATOM
M  V30 BEGIN BOND
M  V30 1 1 1 2
M  V30 2 2 2 3
M  V30 3 1 2 4
M  V30 4 1 3 5
M  V30 5 1 3 6
M  V30 6 1 4 7
M  V30 7 2 4 8
M  V30 8 1 6 9
M  V30 9 2 6 10
M  V30 10 1 8 11
M  V30 11 1 10 12
M  V30 12 2 11 13
M  V30 13 1 11 14
M  V30 14 2 12 15
M  V30 15 1 12 16
M  V30 16 1 14 17
M  V30 17 1 16 18
M  V30 18 1 17 19
M  V30 19 2 17 20
M  V30 20 2 18 21
M  V30 21 1 21 22
M  V30 22 1 8 10
M  V30 23 2 14 16
M  V30 24 1 20 21
M  V30 END BOND
M  V30 END CTAB
M  END
>  <Column 1>
222

>  <Column 2>
PandemicResponseBox - Plate C

>  <Column 3>
F09

>  <Column 4>
MMV1581545

>  <Column 5>
10 mM

>  <Column 6>
ANTIBACTERIALS

>  <Column 7>


>  <Column 8>
None

>  <Column 9>


>  <Column 10>
Cc1cc(O)c2C(=O)c3c(O)c(I)c(O)c(I)c3C(=O)c2c1

>  <Column 11>


>  <Column 12>
�Journal of Medicinal Chemistry�(2014),�57(9),�3707-3714

>  <Column 13>
522

>  <Column 14>
C15 H8 I2 O5

>  <Tox-Glu>
ATCTOX

>  <Column 15>


>  <Column 16>
53 

>  <Column 17>
20 

>  <Column 18>
0 

>  <Column 19>


>  <Tox-Gal>
CTOXGAL

>  <Column 20>


>  <Column 21>
3 

>  <Column 22>
1 

>  <Column 23>
0 

>  <Column 24>


>  <Column 25>


>  <PAMPA>
PAMPA

>  <Column 26>
25

>  <Column 27>


>  <Column 28>


>  <Mouse>
ATMETMOU

>  <Column 29>
15

>  <Column 30>


$$$$
Compound 224
Actelion Java MolfileCreator 2.0

  0  0  0  0  0  0              0 V3000
M  V30 BEGIN CTAB
M  V30 COUNTS 21 23 0 0 0
M  V30 BEGIN ATOM
M  V30 1 Br 8.37 0.7957 0.0 0
M  V30 2 C 6.9028 0.4838 0.0 0
M  V30 3 C 6.4393 -0.9427 0.0 0
M  V30 4 C 5.8991 1.5985 0.0 0
M  V30 5 C 4.972 -1.2546 0.0 0
M  V30 6 C 4.4319 1.2866 0.0 0
M  V30 7 C 3.9684 -0.1398 0.0 0
M  V30 8 C 4.222 -2.5536 0.0 0
M  V30 9 N 2.598 -0.75 0.0 0
M  V30 10 C 2.7548 -2.2417 0.0 0
M  V30 11 S 1.299 0.0 0.0 0
M  V30 12 O 2.049 1.299 0.0 0
M  V30 13 O 0.549 1.299 0.0 0
M  V30 14 C 0.0 -0.75 0.0 0
M  V30 15 C -1.3703 -0.1398 0.0 0
M  V30 16 C -0.1567 -2.2417 0.0 0
M  V30 17 S -2.374 -1.2546 0.0 0
M  V30 18 C -1.6821 1.3273 0.0 0
M  V30 19 C -1.624 -2.5536 0.0 0
M  V30 20 O -0.5674 2.331 0.0 0
M  V30 21 O -3.1087 1.7908 0.0 0
M  V30 END ATOM
M  V30 BEGIN BOND
M  V30 1 1 1 2
M  V30 2 2 2 3
M  V30 3 1 2 4
M  V30 4 1 3 5
M  V30 5 2 4 6
M  V30 6 2 5 7
M  V30 7 1 5 8
M  V30 8 1 7 9
M  V30 9 2 8 10
M  V30 10 1 9 11
M  V30 11 2 11 12
M  V30 12 2 11 13
M  V30 13 1 11 14
M  V30 14 2 14 15
M  V30 15 1 14 16
M  V30 16 1 15 17
M  V30 17 1 15 18
M  V30 18 2 16 19
M  V30 19 2 18 20
M  V30 20 1 18 21
M  V30 21 1 6 7
M  V30 22 1 9 10
M  V30 23 1 17 19
M  V30 END BOND
M  V30 END CTAB
M  END
>  <Column 1>
223

>  <Column 2>
PandemicResponseBox - Plate C

>  <Column 3>
G09

>  <Column 4>
MMV1580855

>  <Column 5>
10 mM

>  <Column 6>
ANTIBACTERIALS

>  <Column 7>


>  <Column 8>
None

>  <Column 9>


>  <Column 10>
OC(=O)c1sccc1S(=O)(=O)n2ccc3cc(Br)ccc23

>  <Column 11>
CHEMBL427320

>  <Column 12>


>  <Column 13>
386.2

>  <Column 14>
C13 H8 Br N O4 S2

>  <Tox-Glu>
ATCTOX

>  <Column 15>


>  <Column 16>
96 

>  <Column 17>
104 

>  <Column 18>
91 

>  <Column 19>


>  <Tox-Gal>
CTOXGAL

>  <Column 20>


>  <Column 21>
99 

>  <Column 22>
101 

>  <Column 23>
96 

>  <Column 24>


>  <Column 25>


>  <PAMPA>
PAMPA

>  <Column 26>
undetected

>  <Column 27>
large blank peak

>  <Column 28>


>  <Mouse>
ATMETMOU

>  <Column 29>
-4

>  <Column 30>
Low sensitivity

$$$$
Compound 225
Actelion Java MolfileCreator 2.0

  0  0  0  0  0  0              0 V3000
M  V30 BEGIN CTAB
M  V30 COUNTS 26 28 0 0 0
M  V30 BEGIN ATOM
M  V30 1 Cl 16.8874 0.0 0.0 0
M  V30 2 C 15.5884 -0.7499 0.0 0
M  V30 3 C 14.2894 0.0 0.0 0
M  V30 4 C 15.5884 -2.25 0.0 0
M  V30 5 C 12.9903 -0.7499 0.0 0
M  V30 6 C 14.2894 -2.9999 0.0 0
M  V30 7 C 12.9903 -2.25 0.0 0
M  V30 8 C 11.6913 -2.9999 0.0 0
M  V30 9 N 10.3923 -2.2499 0.0 0
M  V30 10 C 11.6913 -4.4999 0.0 0
M  V30 11 C 9.0932 -2.9999 0.0 0
M  V30 12 C 10.3923 -5.2499 0.0 0
M  V30 13 C 7.7942 -2.2499 0.0 0
M  V30 14 C 9.0932 -4.4999 0.0 0
M  V30 15 C 10.3923 -6.7499 0.0 0
M  V30 16 C 7.7942 -0.75 0.0 0
M  V30 17 C 6.4951 -2.9999 0.0 0
M  V30 18 O 9.0932 -7.5 0.0 0
M  V30 19 O 11.6913 -7.4999 0.0 0
M  V30 20 C 6.4951 0.0 0.0 0
M  V30 21 C 5.1961 -2.25 0.0 0
M  V30 22 C 5.1961 -0.75 0.0 0
M  V30 23 C 3.8971 0.0 0.0 0
M  V30 24 C 2.598 -0.75 0.0 0
M  V30 25 C 1.299 0.0 0.0 0
M  V30 26 C 0.0 -0.75 0.0 0
M  V30 END ATOM
M  V30 BEGIN BOND
M  V30 1 1 1 2
M  V30 2 2 2 3
M  V30 3 1 2 4
M  V30 4 1 3 5
M  V30 5 2 4 6
M  V30 6 2 5 7
M  V30 7 1 7 8
M  V30 8 2 8 9
M  V30 9 1 8 10
M  V30 10 1 9 11
M  V30 11 2 10 12
M  V30 12 1 11 13
M  V30 13 2 11 14
M  V30 14 1 12 15
M  V30 15 2 13 16
M  V30 16 1 13 17
M  V30 17 2 15 18
M  V30 18 1 15 19
M  V30 19 1 16 20
M  V30 20 2 17 21
M  V30 21 2 20 22
M  V30 22 1 22 23
M  V30 23 1 23 24
M  V30 24 1 24 25
M  V30 25 1 25 26
M  V30 26 1 6 7
M  V30 27 1 12 14
M  V30 28 1 21 22
M  V30 END BOND
M  V30 END CTAB
M  END
>  <Column 1>
224

>  <Column 2>
PandemicResponseBox - Plate C

>  <Column 3>
H09

>  <Column 4>
MMV1580852

>  <Column 5>
10 mM

>  <Column 6>
ANTIBACTERIALS

>  <Column 7>


>  <Column 8>
None

>  <Column 9>


>  <Column 10>
CCCCc1ccc(cc1)c2cc(cc(n2)c3ccc(Cl)cc3)C(=O)O

>  <Column 11>
CHEMBL45841

>  <Column 12>


>  <Column 13>
365.9

>  <Column 14>
C22 H20 Cl N O2

>  <Tox-Glu>
ATCTOX

>  <Column 15>


>  <Column 16>
51 

>  <Column 17>
1 

>  <Column 18>
1 

>  <Column 19>


>  <Tox-Gal>
CTOXGAL

>  <Column 20>


>  <Column 21>
49 

>  <Column 22>
1 

>  <Column 23>
1 

>  <Column 24>


>  <Column 25>


>  <PAMPA>
PAMPA

>  <Column 26>
23

>  <Column 27>


>  <Column 28>


>  <Mouse>
ATMETMOU

>  <Column 29>
30

>  <Column 30>


$$$$
Compound 226
Actelion Java MolfileCreator 2.0

  0  0  0  0  0  0              0 V3000
M  V30 BEGIN CTAB
M  V30 COUNTS 21 22 0 0 0
M  V30 BEGIN ATOM
M  V30 1 O 3.4641 2.5 0.0 0
M  V30 2 C 3.4641 1.5 0.0 0
M  V30 3 C 2.598 3.0 0.0 0
M  V30 4 C 2.598 1.0 0.0 0
M  V30 5 C 4.3301 1.0 0.0 0
M  V30 6 O 1.732 1.5 0.0 0
M  V30 7 C 2.598 0.0 0.0 0
M  V30 8 C 4.3301 0.0 0.0 0
M  V30 9 C 3.4641 -0.4999 0.0 0
M  V30 10 C 1.732 -0.5 0.0 0
M  V30 11 C 5.1961 -0.5 0.0 0
M  V30 12 C 0.866 0.0 0.0 0
M  V30 13 C 6.0621 0.0 0.0 0
M  V30 14 C 0.0 -0.5 0.0 0
M  V30 15 C 6.9282 -0.5 0.0 0
M  V30 16 C 6.0621 0.9999 0.0 0
M  V30 17 N 7.7942 0.0 0.0 0
M  V30 18 N 6.9282 -1.4999 0.0 0
M  V30 19 N 6.9282 1.4999 0.0 0
M  V30 20 C 7.7942 0.9999 0.0 0
M  V30 21 N 8.6602 1.4999 0.0 0
M  V30 END ATOM
M  V30 BEGIN BOND
M  V30 1 1 1 2
M  V30 2 1 1 3
M  V30 3 2 2 4
M  V30 4 1 2 5
M  V30 5 1 4 6
M  V30 6 1 4 7
M  V30 7 2 5 8
M  V30 8 2 7 9
M  V30 9 1 7 10
M  V30 10 1 8 11
M  V30 11 1 10 12
M  V30 12 1 11 13
M  V30 13 2 12 14
M  V30 14 2 13 15
M  V30 15 1 13 16
M  V30 16 1 15 17
M  V30 17 1 15 18
M  V30 18 2 16 19
M  V30 19 2 17 20
M  V30 20 1 20 21
M  V30 21 1 8 9
M  V30 22 1 19 20
M  V30 END BOND
M  V30 END CTAB
M  END
>  <Column 1>
225

>  <Column 2>
PandemicResponseBox - Plate C

>  <Column 3>
A10

>  <Column 4>
MMV1580849

>  <Column 5>
10 mM

>  <Column 6>
ANTIBACTERIALS

>  <Column 7>


>  <Column 8>
None

>  <Column 9>


>  <Column 10>
COc1cc(Cc2cnc(N)nc2N)cc(CC=C)c1O

>  <Column 11>
CHEMBL59416

>  <Column 12>


>  <Column 13>
286.3

>  <Column 14>
C15 H18 N4 O2

>  <Tox-Glu>
ATCTOX

>  <Column 15>


>  <Column 16>
90 

>  <Column 17>
75 

>  <Column 18>
60 

>  <Column 19>


>  <Tox-Gal>
CTOXGAL

>  <Column 20>


>  <Column 21>
96 

>  <Column 22>
88 

>  <Column 23>
76 

>  <Column 24>


>  <Column 25>


>  <PAMPA>
PAMPA

>  <Column 26>
290

>  <Column 27>


>  <Column 28>


>  <Mouse>
ATMETMOU

>  <Column 29>
13

>  <Column 30>
Large variations

$$$$
Compound 227
Actelion Java MolfileCreator 2.0

  0  0  0  0  0  0              0 V3000
M  V30 BEGIN CTAB
M  V30 COUNTS 24 27 0 0 0
M  V30 BEGIN ATOM
M  V30 1 F 4.8147 -3.4344 0.0 0
M  V30 2 C 4.3147 -2.5684 0.0 0
M  V30 3 C 3.3147 -2.5684 0.0 0
M  V30 4 C 4.8147 -1.7024 0.0 0
M  V30 5 C 2.8147 -1.7024 0.0 0
M  V30 6 C 4.3147 -0.8364 0.0 0
M  V30 7 C 3.3147 -0.8364 0.0 0
M  V30 8 C 1.8365 -1.4945 0.0 0
M  V30 9 C 2.6455 -0.0932 0.0 0
M  V30 10 C 1.732 -0.5 0.0 0 CFG=2
M  V30 11 N 0.866 0.0 0.0 0
M  V30 12 C 0.0 -0.5 0.0 0
M  V30 13 N -0.866 0.0 0.0 0
M  V30 14 N 0.0 -1.4999 0.0 0
M  V30 15 C -1.732 -0.4999 0.0 0
M  V30 16 C -0.866 -1.9999 0.0 0
M  V30 17 N -1.732 -1.4999 0.0 0
M  V30 18 N -2.598 0.0 0.0 0
M  V30 19 N -0.866 -2.9999 0.0 0
M  V30 20 C -2.598 1.0 0.0 0
M  V30 21 C -3.4641 -0.4999 0.0 0
M  V30 22 C -3.4641 1.5 0.0 0
M  V30 23 C -4.3301 0.0 0.0 0
M  V30 24 C -4.3301 1.0 0.0 0
M  V30 END ATOM
M  V30 BEGIN BOND
M  V30 1 1 1 2
M  V30 2 2 2 3
M  V30 3 1 2 4
M  V30 4 1 3 5
M  V30 5 2 4 6
M  V30 6 2 5 7
M  V30 7 1 5 8
M  V30 8 1 7 9
M  V30 9 1 10 8
M  V30 10 1 10 11 CFG=1
M  V30 11 1 11 12
M  V30 12 2 12 13
M  V30 13 1 12 14
M  V30 14 1 13 15
M  V30 15 2 14 16
M  V30 16 2 15 17
M  V30 17 1 15 18
M  V30 18 1 16 19
M  V30 19 1 18 20
M  V30 20 1 18 21
M  V30 21 1 20 22
M  V30 22 1 21 23
M  V30 23 1 22 24
M  V30 24 1 6 7
M  V30 25 1 9 10
M  V30 26 1 16 17
M  V30 27 1 23 24
M  V30 END BOND
M  V30 BEGIN COLLECTION
M  V30 MDLV30/STERAC1 ATOMS=(1 10)
M  V30 END COLLECTION
M  V30 END CTAB
M  END
>  <Column 1>
226

>  <Column 2>
PandemicResponseBox - Plate C

>  <Column 3>
B10

>  <Column 4>
MMV1580839

>  <Column 5>
10 mM

>  <Column 6>
ANTIBACTERIALS

>  <Column 7>


>  <Column 8>
None

>  <Column 9>


>  <Column 10>
Nc1nc(NC2Cc3ccc(F)cc3C2)nc(n1)N4CCCCC4

>  <Column 11>
CHEMBL125249

>  <Column 12>


>  <Column 13>
328.4

>  <Column 14>
C17 H21 F N6

>  <Tox-Glu>
ATCTOX

>  <Column 15>


>  <Column 16>
93 

>  <Column 17>
60 

>  <Column 18>
1 

>  <Column 19>


>  <Tox-Gal>
CTOXGAL

>  <Column 20>


>  <Column 21>
94 

>  <Column 22>
1 

>  <Column 23>
1 

>  <Column 24>


>  <Column 25>


>  <PAMPA>
PAMPA

>  <Column 26>
417

>  <Column 27>


>  <Column 28>


>  <Mouse>
ATMETMOU

>  <Column 29>
291

>  <Column 30>


$$$$
Compound 228
Actelion Java MolfileCreator 2.0

  0  0  0  0  0  0              0 V3000
M  V30 BEGIN CTAB
M  V30 COUNTS 25 27 0 0 0
M  V30 BEGIN ATOM
M  V30 1 Cl 7.7942 2.25 0.0 0
M  V30 2 C 6.4952 1.5 0.0 0
M  V30 3 C 5.1961 2.25 0.0 0
M  V30 4 C 6.4952 0.0 0.0 0
M  V30 5 C 3.8971 1.5 0.0 0
M  V30 6 C 5.1961 -0.75 0.0 0
M  V30 7 C 3.8971 0.0 0.0 0
M  V30 8 S 2.598 -0.75 0.0 0
M  V30 9 O 1.848 -2.049 0.0 0
M  V30 10 O 3.348 -2.049 0.0 0
M  V30 11 N 1.299 0.0 0.0 0
M  V30 12 C 0.0 -0.75 0.0 0
M  V30 13 C -1.299 0.0 0.0 0
M  V30 14 C 0.0 -2.25 0.0 0
M  V30 15 C -2.598 -0.75 0.0 0
M  V30 16 C -1.299 -3.0 0.0 0
M  V30 17 N -3.8971 0.0 0.0 0
M  V30 18 C -2.598 -2.25 0.0 0
M  V30 19 C -1.6109 -4.4672 0.0 0
M  V30 20 C -3.8971 1.5 0.0 0
M  V30 21 N -3.7127 -3.2537 0.0 0
M  V30 22 Cl -0.6072 -5.5819 0.0 0
M  V30 23 N -3.1026 -4.624 0.0 0
M  V30 24 O -2.598 2.25 0.0 0
M  V30 25 C -5.1961 2.25 0.0 0
M  V30 END ATOM
M  V30 BEGIN BOND
M  V30 1 1 1 2
M  V30 2 2 2 3
M  V30 3 1 2 4
M  V30 4 1 3 5
M  V30 5 2 4 6
M  V30 6 2 5 7
M  V30 7 1 7 8
M  V30 8 2 8 9
M  V30 9 2 8 10
M  V30 10 1 8 11
M  V30 11 1 11 12
M  V30 12 2 12 13
M  V30 13 1 12 14
M  V30 14 1 13 15
M  V30 15 2 14 16
M  V30 16 1 15 17
M  V30 17 2 15 18
M  V30 18 1 16 19
M  V30 19 1 17 20
M  V30 20 1 18 21
M  V30 21 1 19 22
M  V30 22 2 19 23
M  V30 23 2 20 24
M  V30 24 1 20 25
M  V30 25 1 6 7
M  V30 26 1 16 18
M  V30 27 1 21 23
M  V30 END BOND
M  V30 END CTAB
M  END
>  <Column 1>
227

>  <Column 2>
PandemicResponseBox - Plate C

>  <Column 3>
C10

>  <Column 4>
MMV1579779

>  <Column 5>
10 mM

>  <Column 6>
ANTIBACTERIALS

>  <Column 7>


>  <Column 8>
None

>  <Column 9>


>  <Column 10>
CC(=O)Nc1cc(NS(=O)(=O)c2ccc(Cl)cc2)cc3c(Cl)n[nH]c13

>  <Column 11>
CHEMBL345702

>  <Column 12>


>  <Column 13>
399.3

>  <Column 14>
C15 H12 Cl2 N4 O3 S

>  <Tox-Glu>
ATCTOX

>  <Column 15>


>  <Column 16>
99 

>  <Column 17>
99 

>  <Column 18>
67 

>  <Column 19>


>  <Tox-Gal>
CTOXGAL

>  <Column 20>


>  <Column 21>
91 

>  <Column 22>
74 

>  <Column 23>
0 

>  <Column 24>


>  <Column 25>


>  <PAMPA>
PAMPA

>  <Column 26>
86

>  <Column 27>


>  <Column 28>


>  <Mouse>
ATMETMOU

>  <Column 29>
61

>  <Column 30>


$$$$
Compound 229
Actelion Java MolfileCreator 2.0

  0  0  0  0  0  0              0 V3000
M  V30 BEGIN CTAB
M  V30 COUNTS 26 27 0 0 0
M  V30 BEGIN ATOM
M  V30 1 F 5.0621 1.0 0.0 0
M  V30 2 C 6.0621 1.0 0.0 0
M  V30 3 F 6.0621 2.0 0.0 0
M  V30 4 F 7.0621 1.0 0.0 0
M  V30 5 C 6.0621 0.0 0.0 0
M  V30 6 C 5.1961 -0.5 0.0 0
M  V30 7 C 6.9282 -0.4999 0.0 0
M  V30 8 C 4.3301 0.0 0.0 0
M  V30 9 C 5.1961 -1.4999 0.0 0
M  V30 10 C 6.9282 -1.4999 0.0 0
M  V30 11 O 4.3301 1.0 0.0 0
M  V30 12 C 3.4641 -0.5 0.0 0
M  V30 13 C 6.0621 -1.9999 0.0 0
M  V30 14 C 2.598 0.0 0.0 0
M  V30 15 N 1.732 -0.5 0.0 0
M  V30 16 C 2.598 1.0 0.0 0
M  V30 17 C 1.732 -1.5 0.0 0 CFG=2
M  V30 18 O 3.4641 1.4999 0.0 0
M  V30 19 O 1.732 1.5 0.0 0
M  V30 20 C 2.598 -2.0 0.0 0
M  V30 21 C 0.866 -2.0 0.0 0
M  V30 22 C 3.4641 -1.5 0.0 0
M  V30 23 C 2.598 -2.9999 0.0 0
M  V30 24 C 4.3301 -1.9999 0.0 0
M  V30 25 C 3.4641 -3.5 0.0 0
M  V30 26 C 4.3301 -3.0 0.0 0
M  V30 END ATOM
M  V30 BEGIN BOND
M  V30 1 1 1 2
M  V30 2 1 2 3
M  V30 3 1 2 4
M  V30 4 1 2 5
M  V30 5 2 5 6
M  V30 6 1 5 7
M  V30 7 1 6 8
M  V30 8 1 6 9
M  V30 9 2 7 10
M  V30 10 2 8 11
M  V30 11 1 8 12
M  V30 12 2 9 13
M  V30 13 1 12 14
M  V30 14 1 14 15
M  V30 15 1 14 16
M  V30 16 1 17 15 CFG=3
M  V30 17 2 16 18
M  V30 18 1 16 19
M  V30 19 1 17 20
M  V30 20 1 17 21
M  V30 21 2 20 22
M  V30 22 1 20 23
M  V30 23 1 22 24
M  V30 24 2 23 25
M  V30 25 2 24 26
M  V30 26 1 10 13
M  V30 27 1 25 26
M  V30 END BOND
M  V30 BEGIN COLLECTION
M  V30 MDLV30/STEABS ATOMS=(1 17)
M  V30 END COLLECTION
M  V30 END CTAB
M  END
>  <Column 1>
228

>  <Column 2>
PandemicResponseBox - Plate C

>  <Column 3>
D10

>  <Column 4>
MMV1579778

>  <Column 5>
10 mM

>  <Column 6>
ANTIBACTERIALS

>  <Column 7>


>  <Column 8>
None

>  <Column 9>


>  <Column 10>
C[C@H](NC(CC(=O)c1ccccc1C(F)(F)F)C(=O)O)c2ccccc2

>  <Column 11>
CHEMBL2024257

>  <Column 12>


>  <Column 13>
365.3

>  <Column 14>
C19 H18 F3 N O3

>  <Tox-Glu>
ATCTOX

>  <Column 15>


>  <Column 16>
97 

>  <Column 17>
101 

>  <Column 18>
100 

>  <Column 19>


>  <Tox-Gal>
CTOXGAL

>  <Column 20>


>  <Column 21>
98 

>  <Column 22>
103 

>  <Column 23>
104 

>  <Column 24>


>  <Column 25>


>  <PAMPA>
PAMPA

>  <Column 26>
undetected

>  <Column 27>
low sensitivity

>  <Column 28>


>  <Mouse>
ATMETMOU

>  <Column 29>


>  <Column 30>
Not determined; Low sensitivity

$$$$
Compound 230
Actelion Java MolfileCreator 2.0

  0  0  0  0  0  0              0 V3000
M  V30 BEGIN CTAB
M  V30 COUNTS 31 35 0 0 0
M  V30 BEGIN ATOM
M  V30 1 O 3.4641 -0.5 0.0 0
M  V30 2 C 2.598 0.0 0.0 0
M  V30 3 N 1.732 -0.5 0.0 0
M  V30 4 C 2.598 1.0 0.0 0
M  V30 5 C 0.866 0.0 0.0 0
M  V30 6 C 3.407 1.5877 0.0 0
M  V30 7 C 1.789 1.5877 0.0 0
M  V30 8 C 0.0 -0.5 0.0 0
M  V30 9 N 3.098 2.5388 0.0 0
M  V30 10 N 4.3581 1.2787 0.0 0
M  V30 11 N 0.8109 1.3798 0.0 0
M  V30 12 C 2.098 2.5388 0.0 0
M  V30 13 O -0.9135 -0.0932 0.0 0
M  V30 14 C -0.1045 -1.4945 0.0 0
M  V30 15 C 3.6858 3.3478 0.0 0
M  V30 16 C 0.1417 2.123 0.0 0
M  V30 17 N 1.4289 3.2819 0.0 0
M  V30 18 C -1.5826 -0.8364 0.0 0
M  V30 19 C -1.0826 -1.7024 0.0 0
M  V30 20 C 4.6803 3.2433 0.0 0
M  V30 21 C 0.4507 3.074 0.0 0
M  V30 22 C -0.8363 1.9151 0.0 0
M  V30 23 N 5.2681 4.0523 0.0 0
M  V30 24 C -0.2183 3.8172 0.0 0
M  V30 25 C -1.5054 2.6582 0.0 0
M  V30 26 C 6.2626 3.9478 0.0 0
M  V30 27 C 4.8614 4.9658 0.0 0
M  V30 28 C -1.1964 3.6093 0.0 0
M  V30 29 C 6.8504 4.7568 0.0 0
M  V30 30 C 5.4492 5.7749 0.0 0
M  V30 31 C 6.4437 5.6703 0.0 0
M  V30 END ATOM
M  V30 BEGIN BOND
M  V30 1 2 1 2
M  V30 2 1 2 3
M  V30 3 1 2 4
M  V30 4 1 3 5
M  V30 5 2 4 6
M  V30 6 1 4 7
M  V30 7 1 5 8
M  V30 8 1 6 9
M  V30 9 1 6 10
M  V30 10 2 7 11
M  V30 11 1 7 12
M  V30 12 1 8 13
M  V30 13 2 8 14
M  V30 14 1 9 15
M  V30 15 1 11 16
M  V30 16 2 12 17
M  V30 17 1 13 18
M  V30 18 1 14 19
M  V30 19 1 15 20
M  V30 20 1 16 21
M  V30 21 2 16 22
M  V30 22 1 20 23
M  V30 23 2 21 24
M  V30 24 1 22 25
M  V30 25 1 23 26
M  V30 26 1 23 27
M  V30 27 1 24 28
M  V30 28 1 26 29
M  V30 29 1 27 30
M  V30 30 1 29 31
M  V30 31 1 9 12
M  V30 32 1 17 21
M  V30 33 2 18 19
M  V30 34 2 25 28
M  V30 35 1 30 31
M  V30 END BOND
M  V30 END CTAB
M  END
>  <Column 1>
229

>  <Column 2>
PandemicResponseBox - Plate C

>  <Column 3>
E10

>  <Column 4>
MMV099714

>  <Column 5>
10 mM

>  <Column 6>
ANTIBACTERIALS

>  <Column 7>


>  <Column 8>
None

>  <Column 9>
SMR000040087

>  <Column 10>
Nc1c(C(=O)NCc2occc2)c3nc4ccccc4nc3n1CCN5CCCCC5

>  <Column 11>
CHEMBL1403575

>  <Column 12>


>  <Column 13>
418.5

>  <Column 14>
C23H26N6O2

>  <Tox-Glu>
ATCTOX

>  <Column 15>


>  <Column 16>
37 

>  <Column 17>
1 

>  <Column 18>
1 

>  <Column 19>


>  <Tox-Gal>
CTOXGAL

>  <Column 20>


>  <Column 21>
94 

>  <Column 22>
1 

>  <Column 23>
1 

>  <Column 24>


>  <Column 25>


>  <PAMPA>
PAMPA

>  <Column 26>
355

>  <Column 27>


>  <Column 28>


>  <Mouse>
ATMETMOU

>  <Column 29>
239

>  <Column 30>


$$$$
Compound 231
Actelion Java MolfileCreator 2.0

  0  0  0  0  0  0              0 V3000
M  V30 BEGIN CTAB
M  V30 COUNTS 21 23 0 0 0
M  V30 BEGIN ATOM
M  V30 1 O 6.4951 1.4999 0.0 0
M  V30 2 C 6.4951 0.0 0.0 0
M  V30 3 N 5.1961 -0.75 0.0 0
M  V30 4 C 7.7942 -0.75 0.0 0
M  V30 5 C 5.1961 -2.25 0.0 0
M  V30 6 C 3.8971 0.0 0.0 0
M  V30 7 C 7.7942 -2.25 0.0 0
M  V30 8 C 9.0932 0.0 0.0 0
M  V30 9 N 6.4951 -3.0 0.0 0
M  V30 10 C 2.598 -0.75 0.0 0
M  V30 11 C 9.0932 -3.0 0.0 0
M  V30 12 C 10.3923 -0.75 0.0 0
M  V30 13 O 2.598 -2.25 0.0 0
M  V30 14 N 1.299 0.0 0.0 0
M  V30 15 C 10.3923 -2.25 0.0 0
M  V30 16 C 0.0 -0.75 0.0 0
M  V30 17 C -1.299 0.0 0.0 0
M  V30 18 C 0.0 -2.2499 0.0 0
M  V30 19 C -2.598 -0.7499 0.0 0
M  V30 20 C -1.299 -2.9999 0.0 0
M  V30 21 C -2.598 -2.2499 0.0 0
M  V30 END ATOM
M  V30 BEGIN BOND
M  V30 1 2 1 2
M  V30 2 1 2 3
M  V30 3 1 2 4
M  V30 4 1 3 5
M  V30 5 1 3 6
M  V30 6 2 4 7
M  V30 7 1 4 8
M  V30 8 2 5 9
M  V30 9 1 6 10
M  V30 10 1 7 11
M  V30 11 2 8 12
M  V30 12 2 10 13
M  V30 13 1 10 14
M  V30 14 2 11 15
M  V30 15 1 14 16
M  V30 16 2 16 17
M  V30 17 1 16 18
M  V30 18 1 17 19
M  V30 19 2 18 20
M  V30 20 2 19 21
M  V30 21 1 7 9
M  V30 22 1 12 15
M  V30 23 1 20 21
M  V30 END BOND
M  V30 END CTAB
M  END
>  <Column 1>
230

>  <Column 2>
PandemicResponseBox - Plate C

>  <Column 3>
F10

>  <Column 4>
MMV1578891

>  <Column 5>
10 mM

>  <Column 6>
ANTIBACTERIALS

>  <Column 7>


>  <Column 8>
None

>  <Column 9>
BRN 0384912

>  <Column 10>
O=C(CN1C=Nc2ccccc2C1=O)Nc3ccccc3

>  <Column 11>
CHEMBL3331271

>  <Column 12>


>  <Column 13>
279.3

>  <Column 14>
C16 H13 N3 O2

>  <Tox-Glu>
ATCTOX

>  <Column 15>


>  <Column 16>
95 

>  <Column 17>
97 

>  <Column 18>
94 

>  <Column 19>


>  <Tox-Gal>
CTOXGAL

>  <Column 20>


>  <Column 21>
100 

>  <Column 22>
100 

>  <Column 23>
102 

>  <Column 24>


>  <Column 25>


>  <PAMPA>
PAMPA

>  <Column 26>
120

>  <Column 27>


>  <Column 28>


>  <Mouse>
ATMETMOU

>  <Column 29>
246

>  <Column 30>


$$$$
Compound 232
Actelion Java MolfileCreator 2.0

  0  0  0  0  0  0              0 V3000
M  V30 BEGIN CTAB
M  V30 COUNTS 20 21 0 0 0
M  V30 BEGIN ATOM
M  V30 1 O 6.4951 0.0 0.0 0
M  V30 2 C 5.1961 -0.75 0.0 0
M  V30 3 N 3.8971 0.0 0.0 0
M  V30 4 C 5.1961 -2.25 0.0 0
M  V30 5 C 2.598 -0.75 0.0 0
M  V30 6 C 3.8971 -3.0 0.0 0
M  V30 7 C 6.4951 -3.0 0.0 0
M  V30 8 C 1.299 0.0 0.0 0
M  V30 9 C 3.8971 -4.5 0.0 0
M  V30 10 C 6.4951 -4.5 0.0 0
M  V30 11 C 0.0 -0.75 0.0 0
M  V30 12 C 5.1961 -5.25 0.0 0
M  V30 13 C -1.299 0.0 0.0 0
M  V30 14 C 0.0 -2.25 0.0 0
M  V30 15 O 5.1961 -6.75 0.0 0
M  V30 16 C -2.598 -0.7499 0.0 0
M  V30 17 C -1.299 -2.9999 0.0 0
M  V30 18 C 3.8971 -7.5 0.0 0
M  V30 19 C -2.598 -2.2499 0.0 0
M  V30 20 C 3.8971 -9.0 0.0 0
M  V30 END ATOM
M  V30 BEGIN BOND
M  V30 1 2 1 2
M  V30 2 1 2 3
M  V30 3 1 2 4
M  V30 4 1 3 5
M  V30 5 2 4 6
M  V30 6 1 4 7
M  V30 7 1 5 8
M  V30 8 1 6 9
M  V30 9 2 7 10
M  V30 10 1 8 11
M  V30 11 2 9 12
M  V30 12 2 11 13
M  V30 13 1 11 14
M  V30 14 1 12 15
M  V30 15 1 13 16
M  V30 16 2 14 17
M  V30 17 1 15 18
M  V30 18 2 16 19
M  V30 19 1 18 20
M  V30 20 1 10 12
M  V30 21 1 17 19
M  V30 END BOND
M  V30 END CTAB
M  END
>  <Column 1>
231

>  <Column 2>
PandemicResponseBox - Plate C

>  <Column 3>
G10

>  <Column 4>
MMV124656

>  <Column 5>
10 mM

>  <Column 6>
ANTIBACTERIALS

>  <Column 7>


>  <Column 8>
None

>  <Column 9>


>  <Column 10>
CCOc1ccc(cc1)C(=O)NCCc2ccccc2

>  <Column 11>
CHEMBL1373664

>  <Column 12>


>  <Column 13>
269.3

>  <Column 14>
C17H19NO2

>  <Tox-Glu>
ATCTOX

>  <Column 15>


>  <Column 16>
93 

>  <Column 17>
95 

>  <Column 18>
77 

>  <Column 19>


>  <Tox-Gal>
CTOXGAL

>  <Column 20>


>  <Column 21>
95 

>  <Column 22>
90 

>  <Column 23>
78 

>  <Column 24>


>  <Column 25>


>  <PAMPA>
PAMPA

>  <Column 26>
284

>  <Column 27>


>  <Column 28>


>  <Mouse>
ATMETMOU

>  <Column 29>
>768

>  <Column 30>


$$$$
Compound 233
Actelion Java MolfileCreator 2.0

  0  0  0  0  0  0              0 V3000
M  V30 BEGIN CTAB
M  V30 COUNTS 17 19 0 0 0
M  V30 BEGIN ATOM
M  V30 1 O 5.1961 2.25 0.0 0
M  V30 2 C 3.8971 1.4999 0.0 0
M  V30 3 N 2.598 2.25 0.0 0
M  V30 4 C 3.8971 0.0 0.0 0
M  V30 5 N 1.299 1.5 0.0 0
M  V30 6 N 5.1961 -0.75 0.0 0
M  V30 7 C 2.598 -0.75 0.0 0
M  V30 8 C 1.299 0.0 0.0 0
M  V30 9 C 0.0 -0.75 0.0 0
M  V30 10 N -1.3703 -0.1398 0.0 0
M  V30 11 N -0.1567 -2.2417 0.0 0
M  V30 12 C -2.374 -1.2546 0.0 0
M  V30 13 C -1.624 -2.5536 0.0 0
M  V30 14 C -3.874 -1.2546 0.0 0
M  V30 15 C -2.374 -3.8526 0.0 0
M  V30 16 C -4.624 -2.5536 0.0 0
M  V30 17 C -3.874 -3.8526 0.0 0
M  V30 END ATOM
M  V30 BEGIN BOND
M  V30 1 2 1 2
M  V30 2 1 2 3
M  V30 3 1 2 4
M  V30 4 1 3 5
M  V30 5 1 4 6
M  V30 6 2 4 7
M  V30 7 2 5 8
M  V30 8 1 8 9
M  V30 9 2 9 10
M  V30 10 1 9 11
M  V30 11 1 10 12
M  V30 12 1 11 13
M  V30 13 1 12 14
M  V30 14 1 13 15
M  V30 15 2 14 16
M  V30 16 2 15 17
M  V30 17 1 7 8
M  V30 18 2 12 13
M  V30 19 1 16 17
M  V30 END BOND
M  V30 END CTAB
M  END
>  <Column 1>
232

>  <Column 2>
PandemicResponseBox - Plate C

>  <Column 3>
H10

>  <Column 4>
MMV975972

>  <Column 5>
10 mM

>  <Column 6>
ANTIBACTERIALS

>  <Column 7>


>  <Column 8>
None

>  <Column 9>


>  <Column 10>
NC1=CC(=NNC1=O)c2nc3ccccc3[nH]2

>  <Column 11>
CHEMBL2165174

>  <Column 12>


>  <Column 13>
227.2

>  <Column 14>
C11 H9 N5 O

>  <Tox-Glu>
ATCTOX

>  <Column 15>


>  <Column 16>
97 

>  <Column 17>
98 

>  <Column 18>
84 

>  <Column 19>


>  <Tox-Gal>
CTOXGAL

>  <Column 20>


>  <Column 21>
96 

>  <Column 22>
97 

>  <Column 23>
91 

>  <Column 24>


>  <Column 25>


>  <PAMPA>
PAMPA

>  <Column 26>
undetected

>  <Column 27>
low sensitivity

>  <Column 28>


>  <Mouse>
ATMETMOU

>  <Column 29>
>768

>  <Column 30>
Low sensitivity

$$$$
Compound 234
Actelion Java MolfileCreator 2.0

  0  0  0  0  0  0              0 V3000
M  V30 BEGIN CTAB
M  V30 COUNTS 27 30 0 0 0
M  V30 BEGIN ATOM
M  V30 1 Br 6.9282 -3.5 0.0 0
M  V30 2 C 6.0621 -3.0 0.0 0
M  V30 3 C 6.0621 -2.0 0.0 0
M  V30 4 C 5.1961 -3.5 0.0 0
M  V30 5 O 6.9282 -1.4999 0.0 0
M  V30 6 C 5.1961 -1.5 0.0 0
M  V30 7 C 4.3301 -2.9999 0.0 0
M  V30 8 C 6.9282 -0.5 0.0 0
M  V30 9 C 4.3301 -2.0 0.0 0
M  V30 10 C 5.1961 -0.5 0.0 0 CFG=1
M  V30 11 Br 3.4641 -3.4999 0.0 0
M  V30 12 C 6.0621 0.0 0.0 0
M  V30 13 N 4.3301 0.0 0.0 0
M  V30 14 C 3.4641 -0.5 0.0 0
M  V30 15 C 2.598 0.0 0.0 0
M  V30 16 C 1.732 -0.5 0.0 0
M  V30 17 N 0.866 0.0 0.0 0
M  V30 18 C 0.0 -0.5 0.0 0
M  V30 19 N 0.0 -1.4999 0.0 0
M  V30 20 C -0.866 0.0 0.0 0
M  V30 21 C -0.866 -1.9999 0.0 0
M  V30 22 C -1.732 -0.4999 0.0 0
M  V30 23 C -1.732 -1.4999 0.0 0
M  V30 24 C -1.0739 -2.9781 0.0 0
M  V30 25 O -2.598 0.0 0.0 0
M  V30 26 S -2.4751 -2.1691 0.0 0
M  V30 27 C -2.0684 -3.0826 0.0 0
M  V30 END ATOM
M  V30 BEGIN BOND
M  V30 1 1 1 2
M  V30 2 2 2 3
M  V30 3 1 2 4
M  V30 4 1 3 5
M  V30 5 1 3 6
M  V30 6 2 4 7
M  V30 7 1 5 8
M  V30 8 2 6 9
M  V30 9 1 10 6
M  V30 10 1 7 11
M  V30 11 1 8 12
M  V30 12 1 10 13 CFG=3
M  V30 13 1 13 14
M  V30 14 1 14 15
M  V30 15 1 15 16
M  V30 16 1 16 17
M  V30 17 1 17 18
M  V30 18 1 18 19
M  V30 19 2 18 20
M  V30 20 1 19 21
M  V30 21 1 20 22
M  V30 22 2 21 23
M  V30 23 1 21 24
M  V30 24 2 22 25
M  V30 25 1 23 26
M  V30 26 2 24 27
M  V30 27 1 7 9
M  V30 28 1 10 12
M  V30 29 1 22 23
M  V30 30 1 26 27
M  V30 END BOND
M  V30 BEGIN COLLECTION
M  V30 MDLV30/STEABS ATOMS=(1 10)
M  V30 END COLLECTION
M  V30 END CTAB
M  END
>  <Column 1>
233

>  <Column 2>
PandemicResponseBox - Plate C

>  <Column 3>
A11

>  <Column 4>
MMV1578884

>  <Column 5>
10 mM

>  <Column 6>
ANTIBACTERIALS

>  <Column 7>
2

>  <Column 8>
Hydrochloric acid hydrate

>  <Column 9>
CRS-3123

>  <Column 10>
Brc1cc(Br)c2OCC[C@@H](NCCCNC3=CC(=O)c4sccc4N3)c2c1

>  <Column 11>
NA

>  <Column 12>
WO�2008039640,WO 2008039639,WO 2008039642  

>  <Column 13>
622.2

>  <Column 14>
C19 H19 Br2 N3 O2 S

>  <Tox-Glu>
ATCTOX

>  <Column 15>


>  <Column 16>
84 

>  <Column 17>
1 

>  <Column 18>
1 

>  <Column 19>


>  <Tox-Gal>
CTOXGAL

>  <Column 20>


>  <Column 21>
88 

>  <Column 22>
1 

>  <Column 23>
1 

>  <Column 24>


>  <Column 25>


>  <PAMPA>
PAMPA

>  <Column 26>
3

>  <Column 27>


>  <Column 28>


>  <Mouse>
ATMETMOU

>  <Column 29>
109

>  <Column 30>


$$$$
Compound 235
Actelion Java MolfileCreator 2.0

  0  0  0  0  0  0              0 V3000
M  V30 BEGIN CTAB
M  V30 COUNTS 20 22 0 0 0
M  V30 BEGIN ATOM
M  V30 1 Cl 8.899 8.176 0.0 0
M  V30 2 C 7.8953 7.0613 0.0 0
M  V30 3 C 6.4281 7.3732 0.0 0
M  V30 4 C 8.3588 5.6347 0.0 0
M  V30 5 C 5.4244 6.2585 0.0 0
M  V30 6 C 7.3552 4.52 0.0 0
M  V30 7 C 5.8879 4.8319 0.0 0
M  V30 8 N 4.8842 3.7172 0.0 0
M  V30 9 N 3.3925 3.874 0.0 0
M  V30 10 C 5.1961 2.25 0.0 0
M  V30 11 C 2.7823 2.5036 0.0 0
M  V30 12 N 6.4951 1.5 0.0 0
M  V30 13 C 3.8971 1.5 0.0 0
M  V30 14 C 6.4951 0.0 0.0 0
M  V30 15 C 3.8971 0.0 0.0 0
M  V30 16 N 5.1961 -0.7499 0.0 0
M  V30 17 N 2.598 -0.75 0.0 0
M  V30 18 C 1.299 0.0 0.0 0
M  V30 19 C 1.299 1.5 0.0 0
M  V30 20 C 0.0 -0.75 0.0 0
M  V30 END ATOM
M  V30 BEGIN BOND
M  V30 1 1 1 2
M  V30 2 2 2 3
M  V30 3 1 2 4
M  V30 4 1 3 5
M  V30 5 2 4 6
M  V30 6 2 5 7
M  V30 7 1 7 8
M  V30 8 1 8 9
M  V30 9 1 8 10
M  V30 10 2 9 11
M  V30 11 2 10 12
M  V30 12 1 10 13
M  V30 13 1 12 14
M  V30 14 2 13 15
M  V30 15 2 14 16
M  V30 16 1 15 17
M  V30 17 1 17 18
M  V30 18 1 18 19
M  V30 19 1 18 20
M  V30 20 1 6 7
M  V30 21 1 11 13
M  V30 22 1 15 16
M  V30 END BOND
M  V30 END CTAB
M  END
>  <Column 1>
234

>  <Column 2>
PandemicResponseBox - Plate C

>  <Column 3>
B11

>  <Column 4>
MMV108465

>  <Column 5>
10 mM

>  <Column 6>
ANTIBACTERIALS

>  <Column 7>


>  <Column 8>
None

>  <Column 9>
MLS000100781

>  <Column 10>
CC(C)Nc1ncnc2c1cnn2c3ccc(Cl)cc3

>  <Column 11>
CHEMBL1372039

>  <Column 12>


>  <Column 13>
287.7

>  <Column 14>
C14H14ClN5

>  <Tox-Glu>
ATCTOX

>  <Column 15>


>  <Column 16>
96 

>  <Column 17>
89 

>  <Column 18>
23 

>  <Column 19>


>  <Tox-Gal>
CTOXGAL

>  <Column 20>


>  <Column 21>
99 

>  <Column 22>
88 

>  <Column 23>
1 

>  <Column 24>


>  <Column 25>


>  <PAMPA>
PAMPA

>  <Column 26>
169

>  <Column 27>


>  <Column 28>


>  <Mouse>
ATMETMOU

>  <Column 29>
662

>  <Column 30>


$$$$
Compound 236
Actelion Java MolfileCreator 2.0

  0  0  0  0  0  0              0 V3000
M  V30 BEGIN CTAB
M  V30 COUNTS 21 23 0 0 0
M  V30 BEGIN ATOM
M  V30 1 F 2.598 1.0 0.0 0
M  V30 2 C 2.598 0.0 0.0 0
M  V30 3 C 1.732 -0.5 0.0 0
M  V30 4 C 3.4641 -0.4999 0.0 0
M  V30 5 O 0.866 0.0 0.0 0
M  V30 6 C 1.732 -1.5 0.0 0
M  V30 7 F 4.3301 0.0 0.0 0
M  V30 8 C 3.4641 -1.4999 0.0 0
M  V30 9 C 0.866 0.9999 0.0 0
M  V30 10 N 0.866 -2.0 0.0 0
M  V30 11 C 2.598 -1.9999 0.0 0
M  V30 12 C 0.866 -3.0 0.0 0
M  V30 13 C 0.0 -1.5 0.0 0
M  V30 14 C 2.598 -2.9999 0.0 0
M  V30 15 C 1.732 -3.4999 0.0 0
M  V30 16 C -0.5 -0.6339 0.0 0
M  V30 17 C -0.9999 -1.5 0.0 0
M  V30 18 O 3.4641 -3.4999 0.0 0
M  V30 19 C 1.732 -4.5 0.0 0
M  V30 20 O 0.866 -5.0 0.0 0
M  V30 21 O 2.598 -4.9999 0.0 0
M  V30 END ATOM
M  V30 BEGIN BOND
M  V30 1 1 1 2
M  V30 2 2 2 3
M  V30 3 1 2 4
M  V30 4 1 3 5
M  V30 5 1 3 6
M  V30 6 1 4 7
M  V30 7 2 4 8
M  V30 8 1 5 9
M  V30 9 1 6 10
M  V30 10 2 6 11
M  V30 11 1 10 12
M  V30 12 1 10 13
M  V30 13 1 11 14
M  V30 14 2 12 15
M  V30 15 1 13 16
M  V30 16 1 13 17
M  V30 17 2 14 18
M  V30 18 1 15 19
M  V30 19 2 19 20
M  V30 20 1 19 21
M  V30 21 1 8 11
M  V30 22 1 14 15
M  V30 23 1 16 17
M  V30 END BOND
M  V30 END CTAB
M  END
>  <Column 1>
235

>  <Column 2>
PandemicResponseBox - Plate C

>  <Column 3>
C11

>  <Column 4>
MMV1480967

>  <Column 5>
10 mM

>  <Column 6>
ANTIBACTERIALS

>  <Column 7>


>  <Column 8>
None

>  <Column 9>


>  <Column 10>
COc1c(F)c(F)cc2C(=O)C(=CN(C3CC3)c12)C(=O)O

>  <Column 11>
CHEMBL1425316

>  <Column 12>


>  <Column 13>
295.2

>  <Column 14>
C14H11F2NO4

>  <Tox-Glu>
ATCTOX

>  <Column 15>


>  <Column 16>
94 

>  <Column 17>
98 

>  <Column 18>
89 

>  <Column 19>


>  <Tox-Gal>
CTOXGAL

>  <Column 20>


>  <Column 21>
99 

>  <Column 22>
100 

>  <Column 23>
100 

>  <Column 24>


>  <Column 25>


>  <PAMPA>
PAMPA

>  <Column 26>
undetected

>  <Column 27>
low sensitivity

>  <Column 28>


>  <Mouse>
ATMETMOU

>  <Column 29>
-20

>  <Column 30>


$$$$
Compound 237
Actelion Java MolfileCreator 2.0

  0  0  0  0  0  0              0 V3000
M  V30 BEGIN CTAB
M  V30 COUNTS 24 26 0 0 0
M  V30 BEGIN ATOM
M  V30 1 Cl 7.0937 3.8476 0.0 0
M  V30 2 C 6.7847 2.8966 0.0 0
M  V30 3 C 7.4538 2.1534 0.0 0
M  V30 4 C 5.8065 2.6887 0.0 0
M  V30 5 C 7.1448 1.2024 0.0 0
M  V30 6 C 5.4975 1.7376 0.0 0
M  V30 7 C 6.1667 0.9945 0.0 0
M  V30 8 C 7.6448 0.3364 0.0 0
M  V30 9 N 6.0621 0.0 0.0 0
M  V30 10 C 6.9757 -0.4067 0.0 0
M  V30 11 C 8.623 0.1284 0.0 0
M  V30 12 C 5.1961 -0.5 0.0 0
M  V30 13 C 7.2847 -1.3577 0.0 0
M  V30 14 C 8.932 -0.8225 0.0 0
M  V30 15 C 4.3301 0.0 0.0 0
M  V30 16 C 8.2628 -1.5657 0.0 0
M  V30 17 Cl 9.9101 -1.0304 0.0 0
M  V30 18 O 4.3301 1.0 0.0 0
M  V30 19 C 3.4641 -0.5 0.0 0
M  V30 20 N 2.598 0.0 0.0 0
M  V30 21 C 1.732 -0.5 0.0 0
M  V30 22 C 0.866 0.0 0.0 0
M  V30 23 C 1.732 -1.5 0.0 0
M  V30 24 C 0.0 -0.5 0.0 0
M  V30 END ATOM
M  V30 BEGIN BOND
M  V30 1 1 1 2
M  V30 2 2 2 3
M  V30 3 1 2 4
M  V30 4 1 3 5
M  V30 5 2 4 6
M  V30 6 2 5 7
M  V30 7 1 5 8
M  V30 8 1 7 9
M  V30 9 2 8 10
M  V30 10 1 8 11
M  V30 11 1 9 12
M  V30 12 1 10 13
M  V30 13 2 11 14
M  V30 14 1 12 15
M  V30 15 2 13 16
M  V30 16 1 14 17
M  V30 17 1 15 18
M  V30 18 1 15 19
M  V30 19 1 19 20
M  V30 20 1 20 21
M  V30 21 1 21 22
M  V30 22 1 21 23
M  V30 23 1 22 24
M  V30 24 1 6 7
M  V30 25 1 9 10
M  V30 26 1 14 16
M  V30 END BOND
M  V30 END CTAB
M  END
>  <Column 1>
236

>  <Column 2>
PandemicResponseBox - Plate C

>  <Column 3>
D11

>  <Column 4>
MMV1578570

>  <Column 5>
10 mM

>  <Column 6>
ANTIBACTERIALS

>  <Column 7>


>  <Column 8>
None

>  <Column 9>


>  <Column 10>
CCC(C)NCC(O)Cn1c2ccc(Cl)cc2c3cc(Cl)ccc13

>  <Column 11>
CHEMBL3359320

>  <Column 12>


>  <Column 13>
365.3

>  <Column 14>
C19 H22 Cl2 N2 O

>  <Tox-Glu>
ATCTOX

>  <Column 15>


>  <Column 16>
1 

>  <Column 17>
1 

>  <Column 18>
0 

>  <Column 19>


>  <Tox-Gal>
CTOXGAL

>  <Column 20>


>  <Column 21>
1 

>  <Column 22>
0 

>  <Column 23>
0 

>  <Column 24>


>  <Column 25>


>  <PAMPA>
PAMPA

>  <Column 26>
123

>  <Column 27>


>  <Column 28>


>  <Mouse>
ATMETMOU

>  <Column 29>
-17

>  <Column 30>


$$$$
Compound 238
Actelion Java MolfileCreator 2.0

  0  0  0  0  0  0              0 V3000
M  V30 BEGIN CTAB
M  V30 COUNTS 21 22 0 0 0
M  V30 BEGIN ATOM
M  V30 1 F 2.598 1.0 0.0 0
M  V30 2 C 2.598 0.0 0.0 0
M  V30 3 C 1.732 -0.5 0.0 0
M  V30 4 C 3.4641 -0.4999 0.0 0
M  V30 5 O 0.866 0.0 0.0 0
M  V30 6 C 1.732 -1.5 0.0 0
M  V30 7 C 3.4641 -1.4999 0.0 0
M  V30 8 C 0.0 -0.5 0.0 0
M  V30 9 C 2.598 -1.9999 0.0 0
M  V30 10 C 4.3301 -1.9999 0.0 0
M  V30 11 C -0.866 0.0 0.0 0
M  V30 12 C 0.0 -1.4999 0.0 0
M  V30 13 O 4.3301 -2.9999 0.0 0
M  V30 14 N 5.1961 -1.4999 0.0 0
M  V30 15 O -0.866 1.0 0.0 0
M  V30 16 C -1.732 -0.4999 0.0 0
M  V30 17 C -0.866 -1.9999 0.0 0
M  V30 18 C -1.732 -1.4999 0.0 0
M  V30 19 F -0.866 -2.9999 0.0 0
M  V30 20 C -2.598 -1.9999 0.0 0
M  V30 21 C -2.598 -2.9999 0.0 0
M  V30 END ATOM
M  V30 BEGIN BOND
M  V30 1 1 1 2
M  V30 2 2 2 3
M  V30 3 1 2 4
M  V30 4 1 3 5
M  V30 5 1 3 6
M  V30 6 2 4 7
M  V30 7 1 5 8
M  V30 8 2 6 9
M  V30 9 1 7 10
M  V30 10 2 8 11
M  V30 11 1 8 12
M  V30 12 2 10 13
M  V30 13 1 10 14
M  V30 14 1 11 15
M  V30 15 1 11 16
M  V30 16 2 12 17
M  V30 17 2 16 18
M  V30 18 1 17 19
M  V30 19 1 18 20
M  V30 20 1 20 21
M  V30 21 1 7 9
M  V30 22 1 17 18
M  V30 END BOND
M  V30 END CTAB
M  END
>  <Column 1>
237

>  <Column 2>
PandemicResponseBox - Plate C

>  <Column 3>
E11

>  <Column 4>
MMV1578564

>  <Column 5>
10 mM

>  <Column 6>
ANTIBACTERIALS

>  <Column 7>


>  <Column 8>
None

>  <Column 9>
MUT056399

>  <Column 10>
CCc1cc(O)c(Oc2ccc(cc2F)C(=O)N)cc1F

>  <Column 11>
CHEMBL2178284

>  <Column 12>


>  <Column 13>
293.3

>  <Column 14>
C15 H13 F2 N O3

>  <Tox-Glu>
ATCTOX

>  <Column 15>


>  <Column 16>
97 

>  <Column 17>
93 

>  <Column 18>
49 

>  <Column 19>


>  <Tox-Gal>
CTOXGAL

>  <Column 20>


>  <Column 21>
95 

>  <Column 22>
39 

>  <Column 23>
0 

>  <Column 24>


>  <Column 25>


>  <PAMPA>
PAMPA

>  <Column 26>
223

>  <Column 27>


>  <Column 28>


>  <Mouse>
ATMETMOU

>  <Column 29>
68

>  <Column 30>


$$$$
Compound 239
Actelion Java MolfileCreator 2.0

  0  0  0  0  0  0              0 V3000
M  V30 BEGIN CTAB
M  V30 COUNTS 25 26 0 0 0
M  V30 BEGIN ATOM
M  V30 1 S 4.3301 0.0 0.0 0
M  V30 2 O 4.8301 -0.866 0.0 0
M  V30 3 O 3.8301 0.866 0.0 0
M  V30 4 O 5.1961 0.4999 0.0 0
M  V30 5 C 3.4641 -0.5 0.0 0 CFG=2
M  V30 6 P 3.4641 -1.5 0.0 0
M  V30 7 C 2.598 0.0 0.0 0
M  V30 8 O 2.4641 -1.5 0.0 0
M  V30 9 O 3.4641 -2.5 0.0 0
M  V30 10 O 4.4641 -1.5 0.0 0
M  V30 11 C 1.732 -0.5 0.0 0
M  V30 12 C 0.866 0.0 0.0 0
M  V30 13 C 0.0 -0.5 0.0 0
M  V30 14 C -0.866 0.0 0.0 0
M  V30 15 C 0.0 -1.4999 0.0 0
M  V30 16 C -1.732 -0.4999 0.0 0
M  V30 17 C -0.866 -1.9999 0.0 0
M  V30 18 O -2.598 0.0 0.0 0
M  V30 19 C -1.732 -1.4999 0.0 0
M  V30 20 C -3.4641 -0.4999 0.0 0
M  V30 21 C -4.3301 0.0 0.0 0
M  V30 22 C -3.4641 -1.4999 0.0 0
M  V30 23 C -5.1961 -0.4999 0.0 0
M  V30 24 C -4.3301 -1.9999 0.0 0
M  V30 25 C -5.1961 -1.4999 0.0 0
M  V30 END ATOM
M  V30 BEGIN BOND
M  V30 1 2 1 2
M  V30 2 2 1 3
M  V30 3 1 1 4
M  V30 4 1 5 1 CFG=3
M  V30 5 1 5 6
M  V30 6 1 5 7
M  V30 7 2 6 8
M  V30 8 1 6 9
M  V30 9 1 6 10
M  V30 10 1 7 11
M  V30 11 1 11 12
M  V30 12 1 12 13
M  V30 13 2 13 14
M  V30 14 1 13 15
M  V30 15 1 14 16
M  V30 16 2 15 17
M  V30 17 1 16 18
M  V30 18 2 16 19
M  V30 19 1 18 20
M  V30 20 2 20 21
M  V30 21 1 20 22
M  V30 22 1 21 23
M  V30 23 2 22 24
M  V30 24 2 23 25
M  V30 25 1 17 19
M  V30 26 1 24 25
M  V30 END BOND
M  V30 BEGIN COLLECTION
M  V30 MDLV30/STERAC1 ATOMS=(1 5)
M  V30 END COLLECTION
M  V30 END CTAB
M  END
>  <Column 1>
238

>  <Column 2>
PandemicResponseBox - Plate C

>  <Column 3>
F11

>  <Column 4>
MMV1782215

>  <Column 5>
10 mM

>  <Column 6>
ANTIBACTERIALS

>  <Column 7>


>  <Column 8>
None

>  <Column 9>
BMS 188745

>  <Column 10>
OP(=O)(O)C(CCCc1cccc(Oc2ccccc2)c1)S(=O)(=O)O

>  <Column 11>
CHEMBL351151

>  <Column 12>
Molecules (2013), 18, 204-224

>  <Column 13>
386.4

>  <Column 14>
C16 H19 O7 P S

>  <Tox-Glu>
ATCTOX

>  <Column 15>


>  <Column 16>
96 

>  <Column 17>
99 

>  <Column 18>
90 

>  <Column 19>


>  <Tox-Gal>
CTOXGAL

>  <Column 20>


>  <Column 21>
102 

>  <Column 22>
98 

>  <Column 23>
98 

>  <Column 24>


>  <Column 25>


>  <PAMPA>
PAMPA

>  <Column 26>
undetected

>  <Column 27>
low sensitivity

>  <Column 28>


>  <Mouse>
ATMETMOU

>  <Column 29>
-27

>  <Column 30>


$$$$
Compound 240
Actelion Java MolfileCreator 2.0

  0  0  0  0  0  0              0 V3000
M  V30 BEGIN CTAB
M  V30 COUNTS 29 32 0 0 0
M  V30 BEGIN ATOM
M  V30 1 O 2.598 1.0 0.0 0
M  V30 2 C 2.598 0.0 0.0 0
M  V30 3 N 3.4641 -0.5 0.0 0
M  V30 4 N 1.732 -0.5 0.0 0
M  V30 5 C 4.3301 0.0 0.0 0
M  V30 6 C 0.866 0.0 0.0 0
M  V30 7 N 5.2436 -0.4067 0.0 0
M  V30 8 C 4.4346 0.9945 0.0 0
M  V30 9 C 0.0 -0.5 0.0 0
M  V30 10 C 5.9128 0.3364 0.0 0
M  V30 11 N 5.4128 1.2024 0.0 0
M  V30 12 C 6.9128 0.3364 0.0 0
M  V30 13 C 5.9128 2.0684 0.0 0
M  V30 14 C 7.4128 1.2024 0.0 0
M  V30 15 C 5.4128 2.9344 0.0 0
M  V30 16 C 6.9128 2.0684 0.0 0
M  V30 17 C 8.4128 1.2024 0.0 0
M  V30 18 N 5.9128 3.8005 0.0 0
M  V30 19 N 4.4128 2.9344 0.0 0
M  V30 20 C 8.9128 0.3364 0.0 0
M  V30 21 C 8.9128 2.0684 0.0 0
M  V30 22 C 5.4128 4.6665 0.0 0
M  V30 23 C 3.9128 3.8005 0.0 0
M  V30 24 N 9.9128 0.3364 0.0 0
M  V30 25 C 9.9128 2.0684 0.0 0
M  V30 26 C 4.4128 4.6665 0.0 0
M  V30 27 C 10.4128 1.2024 0.0 0
M  V30 28 C 3.9128 5.5325 0.0 0
M  V30 29 C 2.9128 5.5325 0.0 0
M  V30 END ATOM
M  V30 BEGIN BOND
M  V30 1 2 1 2
M  V30 2 1 2 3
M  V30 3 1 2 4
M  V30 4 1 3 5
M  V30 5 1 4 6
M  V30 6 1 5 7
M  V30 7 2 5 8
M  V30 8 1 6 9
M  V30 9 2 7 10
M  V30 10 1 8 11
M  V30 11 1 10 12
M  V30 12 1 11 13
M  V30 13 2 12 14
M  V30 14 1 13 15
M  V30 15 2 13 16
M  V30 16 1 14 17
M  V30 17 2 15 18
M  V30 18 1 15 19
M  V30 19 2 17 20
M  V30 20 1 17 21
M  V30 21 1 18 22
M  V30 22 2 19 23
M  V30 23 1 20 24
M  V30 24 2 21 25
M  V30 25 2 22 26
M  V30 26 2 24 27
M  V30 27 1 26 28
M  V30 28 1 28 29
M  V30 29 1 10 11
M  V30 30 1 14 16
M  V30 31 1 23 26
M  V30 32 1 25 27
M  V30 END BOND
M  V30 END CTAB
M  END
>  <Column 1>
239

>  <Column 2>
PandemicResponseBox - Plate C

>  <Column 3>
G11

>  <Column 4>
MMV1782403

>  <Column 5>
10 mM

>  <Column 6>
ANTIBACTERIALS

>  <Column 7>


>  <Column 8>
None

>  <Column 9>


>  <Column 10>
CCNC(=O)Nc1cn2c(cc(cc2n1)c3cccnc3)c4ncc(CC)cn4

>  <Column 11>
CHEMBL578120

>  <Column 12>


>  <Column 13>
387.4

>  <Column 14>
C21 H21 N7 O

>  <Tox-Glu>
ATCTOX

>  <Column 15>


>  <Column 16>
91 

>  <Column 17>
78 

>  <Column 18>
74 

>  <Column 19>


>  <Tox-Gal>
CTOXGAL

>  <Column 20>


>  <Column 21>
79 

>  <Column 22>
75 

>  <Column 23>
72 

>  <Column 24>


>  <Column 25>


>  <PAMPA>
PAMPA

>  <Column 26>
428

>  <Column 27>


>  <Column 28>


>  <Mouse>
ATMETMOU

>  <Column 29>
21

>  <Column 30>


$$$$
Compound 241
Actelion Java MolfileCreator 2.0

  0  0  0  0  0  0              0 V3000
M  V30 BEGIN CTAB
M  V30 COUNTS 29 31 0 0 0
M  V30 BEGIN ATOM
M  V30 1 S 3.8971 0.0 0.0 0
M  V30 2 O 4.6471 1.299 0.0 0
M  V30 3 O 3.1471 1.299 0.0 0
M  V30 4 N 2.598 -0.75 0.0 0
M  V30 5 C 5.1961 -0.75 0.0 0
M  V30 6 C 1.299 0.0 0.0 0
M  V30 7 C 5.1961 -2.25 0.0 0
M  V30 8 C 6.4951 0.0 0.0 0
M  V30 9 O 1.299 1.5 0.0 0
M  V30 10 C 0.0 -0.75 0.0 0
M  V30 11 O 3.8971 -3.0 0.0 0
M  V30 12 C 6.4951 -3.0 0.0 0
M  V30 13 C 7.7942 -0.75 0.0 0
M  V30 14 C 6.4951 1.5 0.0 0
M  V30 15 N -1.3703 -0.1398 0.0 0
M  V30 16 N -0.1567 -2.2417 0.0 0
M  V30 17 C 3.8971 -4.5 0.0 0
M  V30 18 C 7.7942 -2.25 0.0 0
M  V30 19 N -2.374 -1.2546 0.0 0
M  V30 20 C -1.624 -2.5536 0.0 0
M  V30 21 F 5.3971 -4.5 0.0 0
M  V30 22 F 3.8971 -6.0 0.0 0
M  V30 23 F 2.3971 -4.5 0.0 0
M  V30 24 C -3.874 -1.2546 0.0 0
M  V30 25 N -2.374 -3.8526 0.0 0
M  V30 26 C -4.624 -2.5536 0.0 0
M  V30 27 C -4.624 0.0444 0.0 0
M  V30 28 C -3.874 -3.8526 0.0 0
M  V30 29 C -4.624 -5.1517 0.0 0
M  V30 END ATOM
M  V30 BEGIN BOND
M  V30 1 2 1 2
M  V30 2 2 1 3
M  V30 3 1 1 4
M  V30 4 1 1 5
M  V30 5 1 4 6
M  V30 6 2 5 7
M  V30 7 1 5 8
M  V30 8 2 6 9
M  V30 9 1 6 10
M  V30 10 1 7 11
M  V30 11 1 7 12
M  V30 12 2 8 13
M  V30 13 1 8 14
M  V30 14 2 10 15
M  V30 15 1 10 16
M  V30 16 1 11 17
M  V30 17 2 12 18
M  V30 18 1 15 19
M  V30 19 2 16 20
M  V30 20 1 17 21
M  V30 21 1 17 22
M  V30 22 1 17 23
M  V30 23 1 19 24
M  V30 24 1 20 25
M  V30 25 2 24 26
M  V30 26 1 24 27
M  V30 27 2 25 28
M  V30 28 1 28 29
M  V30 29 1 13 18
M  V30 30 1 19 20
M  V30 31 1 26 28
M  V30 END BOND
M  V30 END CTAB
M  END
>  <Column 1>
240

>  <Column 2>
PandemicResponseBox - Plate C

>  <Column 3>
H11

>  <Column 4>
MMV1782402

>  <Column 5>
10 mM

>  <Column 6>
ANTIBACTERIALS

>  <Column 7>


>  <Column 8>
None

>  <Column 9>


>  <Column 10>
Cc1cc(C)n2nc(nc2n1)C(=O)NS(=O)(=O)c3c(C)cccc3OC(F)(F)F

>  <Column 11>
CHEMBL3260395

>  <Column 12>


>  <Column 13>
429.4

>  <Column 14>
C16 H14 F3 N5 O4 S

>  <Tox-Glu>
ATCTOX

>  <Column 15>


>  <Column 16>
100 

>  <Column 17>
105 

>  <Column 18>
100 

>  <Column 19>


>  <Tox-Gal>
CTOXGAL

>  <Column 20>


>  <Column 21>
100 

>  <Column 22>
107 

>  <Column 23>
108 

>  <Column 24>


>  <Column 25>


>  <PAMPA>
PAMPA

>  <Column 26>
1

>  <Column 27>


>  <Column 28>


>  <Mouse>
ATMETMOU

>  <Column 29>
-3

>  <Column 30>


$$$$
Compound 242
Actelion Java MolfileCreator 2.0

  0  0  0  0  0  0              0 V3000
M  V30 BEGIN CTAB
M  V30 COUNTS 23 24 0 0 0
M  V30 BEGIN ATOM
M  V30 1 S 5.1961 -0.75 0.0 0
M  V30 2 O 3.6961 -0.75 0.0 0
M  V30 3 O 4.4461 0.549 0.0 0
M  V30 4 N 5.1961 -2.25 0.0 0
M  V30 5 C 6.4952 0.0 0.0 0
M  V30 6 C 3.8971 -3.0 0.0 0
M  V30 7 C 7.7942 -0.75 0.0 0
M  V30 8 C 6.4952 1.5 0.0 0
M  V30 9 B 3.8971 -4.5 0.0 0
M  V30 10 C 9.0932 0.0 0.0 0
M  V30 11 C 7.7942 -2.25 0.0 0
M  V30 12 C 7.7942 2.25 0.0 0
M  V30 13 O 5.1961 -5.25 0.0 0
M  V30 14 O 2.598 -5.25 0.0 0
M  V30 15 C 9.0932 1.5 0.0 0
M  V30 16 F 9.2942 -2.25 0.0 0
M  V30 17 F 7.7942 -3.75 0.0 0
M  V30 18 F 6.2942 -2.25 0.0 0
M  V30 19 C 10.3923 2.25 0.0 0
M  V30 20 N 11.7626 1.6398 0.0 0
M  V30 21 N 10.5491 3.7417 0.0 0
M  V30 22 N 12.7663 2.7546 0.0 0
M  V30 23 N 12.0163 4.0536 0.0 0
M  V30 END ATOM
M  V30 BEGIN BOND
M  V30 1 2 1 2
M  V30 2 2 1 3
M  V30 3 1 1 4
M  V30 4 1 1 5
M  V30 5 1 4 6
M  V30 6 2 5 7
M  V30 7 1 5 8
M  V30 8 1 6 9
M  V30 9 1 7 10
M  V30 10 1 7 11
M  V30 11 2 8 12
M  V30 12 1 9 13
M  V30 13 1 9 14
M  V30 14 2 10 15
M  V30 15 1 11 16
M  V30 16 1 11 17
M  V30 17 1 11 18
M  V30 18 1 15 19
M  V30 19 2 19 20
M  V30 20 1 19 21
M  V30 21 1 20 22
M  V30 22 1 21 23
M  V30 23 1 12 15
M  V30 24 2 22 23
M  V30 END BOND
M  V30 END CTAB
M  END
>  <Column 1>
241

>  <Column 2>
PandemicResponseBox - Plate D

>  <Column 3>
A02

>  <Column 4>
MMV1782411

>  <Column 5>
10 mM

>  <Column 6>
ANTIBACTERIALS

>  <Column 7>


>  <Column 8>
None

>  <Column 9>


>  <Column 10>
OB(O)CNS(=O)(=O)c1ccc(cc1C(F)(F)F)c2nnn[nH]2

>  <Column 11>
CHEMBL3613796

>  <Column 12>


>  <Column 13>
351.1

>  <Column 14>
C9 H9 B F3 N5 O4 S

>  <Tox-Glu>
ATCTOX

>  <Column 15>


>  <Column 16>
102 

>  <Column 17>
107 

>  <Column 18>
103 

>  <Column 19>


>  <Tox-Gal>
CTOXGAL

>  <Column 20>


>  <Column 21>
106 

>  <Column 22>
106 

>  <Column 23>
103 

>  <Column 24>


>  <Column 25>


>  <PAMPA>
PAMPA

>  <Column 26>
undetected

>  <Column 27>
low sensitivity

>  <Column 28>


>  <Mouse>
ATMETMOU

>  <Column 29>


>  <Column 30>
Not determined; Low sensitivity

$$$$
Compound 243
Actelion Java MolfileCreator 2.0

  0  0  0  0  0  0              0 V3000
M  V30 BEGIN CTAB
M  V30 COUNTS 20 22 0 0 0
M  V30 BEGIN ATOM
M  V30 1 Br 9.0932 -3.0 0.0 0
M  V30 2 C 7.7942 -2.2499 0.0 0
M  V30 3 C 7.7942 -0.75 0.0 0
M  V30 4 C 6.4951 -2.9999 0.0 0
M  V30 5 C 6.4951 0.0 0.0 0
M  V30 6 C 5.1961 -2.25 0.0 0
M  V30 7 C 5.1961 -0.75 0.0 0
M  V30 8 N 3.8971 0.0 0.0 0
M  V30 9 C 2.598 -0.75 0.0 0
M  V30 10 O 2.598 -2.25 0.0 0
M  V30 11 C 1.299 0.0 0.0 0
M  V30 12 C 0.0 -0.75 0.0 0 CFG=2
M  V30 13 S -1.3703 -0.1398 0.0 0
M  V30 14 C -0.1567 -2.2417 0.0 0
M  V30 15 C -2.374 -1.2546 0.0 0
M  V30 16 O 0.9579 -3.2454 0.0 0
M  V30 17 N -1.624 -2.5536 0.0 0
M  V30 18 N -3.8412 -1.5664 0.0 0
M  V30 19 N -2.6277 -3.6683 0.0 0
M  V30 20 C -3.998 -3.0582 0.0 0
M  V30 END ATOM
M  V30 BEGIN BOND
M  V30 1 1 1 2
M  V30 2 2 2 3
M  V30 3 1 2 4
M  V30 4 1 3 5
M  V30 5 2 4 6
M  V30 6 2 5 7
M  V30 7 1 7 8
M  V30 8 1 8 9
M  V30 9 2 9 10
M  V30 10 1 9 11
M  V30 11 1 12 11 CFG=1
M  V30 12 1 12 13
M  V30 13 1 12 14
M  V30 14 1 13 15
M  V30 15 2 14 16
M  V30 16 1 14 17
M  V30 17 2 15 18
M  V30 18 1 17 19
M  V30 19 1 18 20
M  V30 20 1 6 7
M  V30 21 1 15 17
M  V30 22 2 19 20
M  V30 END BOND
M  V30 BEGIN COLLECTION
M  V30 MDLV30/STERAC1 ATOMS=(1 12)
M  V30 END COLLECTION
M  V30 END CTAB
M  END
>  <Column 1>
242

>  <Column 2>
PandemicResponseBox - Plate D

>  <Column 3>
B02

>  <Column 4>
MMV214956

>  <Column 5>
10 mM

>  <Column 6>
ANTIVIRALS

>  <Column 7>


>  <Column 8>
None

>  <Column 9>


>  <Column 10>
BrC3=CC=C(NC(=O)CC2SC1=NC=N[N]1C2=O)C=C3

>  <Column 11>
CHEMBL243652

>  <Column 12>
US�8563580,WO 2010039538

>  <Column 13>
353.2

>  <Column 14>
C12H9BrN4O2S

>  <Tox-Glu>
ATCTOX

>  <Column 15>


>  <Column 16>
82 

>  <Column 17>
2 

>  <Column 18>
0 

>  <Column 19>


>  <Tox-Gal>
CTOXGAL

>  <Column 20>


>  <Column 21>
100 

>  <Column 22>
57 

>  <Column 23>
0 

>  <Column 24>


>  <Column 25>


>  <PAMPA>
PAMPA

>  <Column 26>
121

>  <Column 27>


>  <Column 28>


>  <Mouse>
ATMETMOU

>  <Column 29>
144

>  <Column 30>


$$$$
Compound 244
Actelion Java MolfileCreator 2.0

  0  0  0  0  0  0              0 V3000
M  V30 BEGIN CTAB
M  V30 COUNTS 20 22 0 0 0
M  V30 BEGIN ATOM
M  V30 1 F 0.866 2.9999 0.0 0
M  V30 2 C 1.732 2.4999 0.0 0
M  V30 3 C 1.732 1.5 0.0 0
M  V30 4 C 2.598 3.0 0.0 0
M  V30 5 C 2.598 1.0 0.0 0
M  V30 6 C 3.4641 2.4999 0.0 0
M  V30 7 C 2.598 0.0 0.0 0
M  V30 8 C 3.4641 1.5 0.0 0
M  V30 9 O 1.732 -0.5 0.0 0
M  V30 10 C 3.4641 -0.4999 0.0 0
M  V30 11 N 4.3301 1.0 0.0 0
M  V30 12 C 0.866 0.0 0.0 0
M  V30 13 C 4.3301 0.0 0.0 0
M  V30 14 C 3.4641 -1.5 0.0 0
M  V30 15 C 0.0 -0.5 0.0 0
M  V30 16 O 5.1961 -0.5 0.0 0
M  V30 17 C 4.3301 -1.9999 0.0 0
M  V30 18 C -0.9659 -0.2411 0.0 0
M  V30 19 C -0.2588 -1.4659 0.0 0
M  V30 20 C -1.2247 -1.2071 0.0 0
M  V30 END ATOM
M  V30 BEGIN BOND
M  V30 1 1 1 2
M  V30 2 2 2 3
M  V30 3 1 2 4
M  V30 4 1 3 5
M  V30 5 2 4 6
M  V30 6 1 5 7
M  V30 7 2 5 8
M  V30 8 1 7 9
M  V30 9 2 7 10
M  V30 10 1 8 11
M  V30 11 1 9 12
M  V30 12 1 10 13
M  V30 13 1 10 14
M  V30 14 1 12 15
M  V30 15 2 13 16
M  V30 16 1 14 17
M  V30 17 1 15 18
M  V30 18 1 15 19
M  V30 19 1 18 20
M  V30 20 1 6 8
M  V30 21 1 11 13
M  V30 22 1 19 20
M  V30 END BOND
M  V30 END CTAB
M  END
>  <Column 1>
243

>  <Column 2>
PandemicResponseBox - Plate D

>  <Column 3>
C02

>  <Column 4>
MMV1634395

>  <Column 5>
10 mM

>  <Column 6>
ANTIVIRALS

>  <Column 7>


>  <Column 8>
None

>  <Column 9>


>  <Column 10>
FC3=CC1=C([NH][C](C(=C1OCC2CCC2)CC)=O)C=C3

>  <Column 11>
CHEMBL188868

>  <Column 12>
�Journal of Medicinal Chemistry�(2004),�47(24),�5923-5936

>  <Column 13>
275.3

>  <Column 14>
C16 H18 F N O2

>  <Tox-Glu>
ATCTOX

>  <Column 15>


>  <Column 16>
93 

>  <Column 17>
66 

>  <Column 18>
8 

>  <Column 19>


>  <Tox-Gal>
CTOXGAL

>  <Column 20>


>  <Column 21>
97 

>  <Column 22>
75 

>  <Column 23>
12 

>  <Column 24>


>  <Column 25>


>  <PAMPA>
PAMPA

>  <Column 26>
287

>  <Column 27>


>  <Column 28>


>  <Mouse>
ATMETMOU

>  <Column 29>
611

>  <Column 30>


$$$$
Compound 245
Actelion Java MolfileCreator 2.0

  0  0  0  0  0  0              0 V3000
M  V30 BEGIN CTAB
M  V30 COUNTS 28 31 0 0 0
M  V30 BEGIN ATOM
M  V30 1 O 4.538 -2.9781 0.0 0
M  V30 2 N 5.5325 -3.0826 0.0 0
M  V30 3 C 4.3301 -1.9999 0.0 0
M  V30 4 C 5.9392 -2.1691 0.0 0
M  V30 5 C 5.1961 -1.4999 0.0 0
M  V30 6 C 3.4641 -1.5 0.0 0
M  V30 7 O 6.9174 -1.9612 0.0 0
M  V30 8 C 5.1961 -0.4999 0.0 0
M  V30 9 C 3.4641 -0.5 0.0 0
M  V30 10 C 7.5865 -2.7043 0.0 0
M  V30 11 C 4.3301 0.0 0.0 0
M  V30 12 O 2.598 0.0 0.0 0
M  V30 13 C 8.5647 -2.4964 0.0 0
M  V30 14 C 1.732 -0.5 0.0 0
M  V30 15 C 0.866 0.0 0.0 0
M  V30 16 C 0.0 -0.5 0.0 0
M  V30 17 C -0.866 0.0 0.0 0
M  V30 18 C 0.0 -1.4999 0.0 0
M  V30 19 C -1.732 -0.4999 0.0 0
M  V30 20 C -0.866 -1.9999 0.0 0
M  V30 21 N -1.732 -1.4999 0.0 0
M  V30 22 C -2.598 -1.9999 0.0 0
M  V30 23 N -3.4641 -1.4999 0.0 0
M  V30 24 C -2.598 -2.9999 0.0 0
M  V30 25 N -4.3301 -1.9999 0.0 0
M  V30 26 C -3.4641 -3.4999 0.0 0
M  V30 27 C -4.3301 -2.9999 0.0 0
M  V30 28 C -5.1961 -3.4999 0.0 0
M  V30 END ATOM
M  V30 BEGIN BOND
M  V30 1 1 1 2
M  V30 2 1 1 3
M  V30 3 2 2 4
M  V30 4 2 3 5
M  V30 5 1 3 6
M  V30 6 1 4 7
M  V30 7 1 5 8
M  V30 8 2 6 9
M  V30 9 1 7 10
M  V30 10 2 8 11
M  V30 11 1 9 12
M  V30 12 1 10 13
M  V30 13 1 12 14
M  V30 14 1 14 15
M  V30 15 1 15 16
M  V30 16 1 16 17
M  V30 17 1 16 18
M  V30 18 1 17 19
M  V30 19 1 18 20
M  V30 20 1 19 21
M  V30 21 1 21 22
M  V30 22 2 22 23
M  V30 23 1 22 24
M  V30 24 1 23 25
M  V30 25 2 24 26
M  V30 26 2 25 27
M  V30 27 1 27 28
M  V30 28 1 4 5
M  V30 29 1 9 11
M  V30 30 1 20 21
M  V30 31 1 26 27
M  V30 END BOND
M  V30 END CTAB
M  END
>  <Column 1>
244

>  <Column 2>
PandemicResponseBox - Plate D

>  <Column 3>
D02

>  <Column 4>
MMV1634071

>  <Column 5>
10 mM

>  <Column 6>
ANTIVIRALS

>  <Column 7>


>  <Column 8>
None

>  <Column 9>
Vapendavir

>  <Column 10>
O1N=C(OCC)C4=C1C=C(OCCC3CCN(C2=NN=C(C)C=C2)CC3)C=C4

>  <Column 11>
CHEMBL2062774

>  <Column 12>
ACS Med. Chem. Lett., (2012) 3:4:303

>  <Column 13>
382.5

>  <Column 14>
C21 H26 N4 O3

>  <Tox-Glu>
ATCTOX

>  <Column 15>


>  <Column 16>
104 

>  <Column 17>
97 

>  <Column 18>
83 

>  <Column 19>


>  <Tox-Gal>
CTOXGAL

>  <Column 20>


>  <Column 21>
101 

>  <Column 22>
77 

>  <Column 23>
79 

>  <Column 24>


>  <Column 25>


>  <PAMPA>
PAMPA

>  <Column 26>
470

>  <Column 27>


>  <Column 28>


>  <Mouse>
ATMETMOU

>  <Column 29>
60

>  <Column 30>


$$$$
Compound 246
Actelion Java MolfileCreator 2.0

  0  0  0  0  0  0              0 V3000
M  V30 BEGIN CTAB
M  V30 COUNTS 18 19 0 0 0
M  V30 BEGIN ATOM
M  V30 1 O 2.598 0.0 0.0 0
M  V30 2 C 3.4641 -0.5 0.0 0
M  V30 3 C 1.732 -0.5 0.0 0
M  V30 4 C 3.4641 -1.5 0.0 0
M  V30 5 C 4.3301 0.0 0.0 0
M  V30 6 C 0.866 0.0 0.0 0
M  V30 7 C 4.3301 -2.0 0.0 0
M  V30 8 C 2.598 -1.9999 0.0 0
M  V30 9 C 5.1961 -0.5 0.0 0
M  V30 10 N 0.0 -0.5 0.0 0
M  V30 11 C 5.1961 -1.5 0.0 0
M  V30 12 C 2.598 -2.9999 0.0 0
M  V30 13 C -0.8262 0.0633 0.0 0
M  V30 14 C 0.0747 -1.4972 0.0 0
M  V30 15 C -1.7818 -0.2314 0.0 0
M  V30 16 C -0.6583 -2.1773 0.0 0
M  V30 17 C -2.1471 -1.1623 0.0 0
M  V30 18 C -1.6471 -2.0283 0.0 0
M  V30 END ATOM
M  V30 BEGIN BOND
M  V30 1 1 1 2
M  V30 2 1 1 3
M  V30 3 2 2 4
M  V30 4 1 2 5
M  V30 5 1 3 6
M  V30 6 1 4 7
M  V30 7 1 4 8
M  V30 8 2 5 9
M  V30 9 1 6 10
M  V30 10 2 7 11
M  V30 11 1 8 12
M  V30 12 1 10 13
M  V30 13 1 10 14
M  V30 14 1 13 15
M  V30 15 1 14 16
M  V30 16 1 15 17
M  V30 17 1 16 18
M  V30 18 1 9 11
M  V30 19 1 17 18
M  V30 END BOND
M  V30 END CTAB
M  END
>  <Column 1>
245

>  <Column 2>
PandemicResponseBox - Plate D

>  <Column 3>
E02

>  <Column 4>
MMV1633962

>  <Column 5>
10 mM

>  <Column 6>
ANTIVIRALS

>  <Column 7>


>  <Column 8>
None

>  <Column 9>


>  <Column 10>
O(C1=C(C=CC=C1)CC)CCN2CCCCCC2

>  <Column 11>
NA

>  <Column 12>
European Journal of Medicinal Chemistry�(2018),�157,�1017-1030;Journal of Medicinal Chemistry (2018), 61(1), 98-118

>  <Column 13>
247.4

>  <Column 14>
C16 H25 N O

>  <Tox-Glu>
ATCTOX

>  <Column 15>


>  <Column 16>
94 

>  <Column 17>
92 

>  <Column 18>
56 

>  <Column 19>


>  <Tox-Gal>
CTOXGAL

>  <Column 20>


>  <Column 21>
98 

>  <Column 22>
94 

>  <Column 23>
45 

>  <Column 24>


>  <Column 25>


>  <PAMPA>
PAMPA

>  <Column 26>
484

>  <Column 27>


>  <Column 28>


>  <Mouse>
ATMETMOU

>  <Column 29>
329

>  <Column 30>


$$$$
Compound 247
Actelion Java MolfileCreator 2.0

  0  0  0  0  0  0              0 V3000
M  V30 BEGIN CTAB
M  V30 COUNTS 31 35 0 0 0
M  V30 BEGIN ATOM
M  V30 1 O 8.5704 -7.2078 0.0 0
M  V30 2 C 9.1805 -5.8375 0.0 0
M  V30 3 N 8.2988 -4.624 0.0 0
M  V30 4 C 10.6723 -5.6807 0.0 0
M  V30 5 C 8.9089 -3.2536 0.0 0
M  V30 6 C 6.807 -4.4672 0.0 0
M  V30 7 C 11.2824 -4.3104 0.0 0
M  V30 8 C 11.5539 -6.8942 0.0 0
M  V30 9 C 7.7942 -2.2499 0.0 0
M  V30 10 C 10.4007 -3.0969 0.0 0
M  V30 11 C 6.4951 -2.9999 0.0 0
M  V30 12 C 12.7741 -4.1536 0.0 0 CFG=2
M  V30 13 O 13.0457 -6.7374 0.0 0
M  V30 14 N 7.7942 -0.7499 0.0 0
M  V30 15 C 5.1961 -2.25 0.0 0
M  V30 16 O 11.8925 -2.9401 0.0 0
M  V30 17 C 13.6558 -5.3671 0.0 0
M  V30 18 C 13.3842 -2.7833 0.0 0
M  V30 19 C 6.4951 0.0 0.0 0
M  V30 20 C 5.1961 -0.7499 0.0 0
M  V30 21 O 15.1476 -5.2103 0.0 0
M  V30 22 C 14.876 -2.6265 0.0 0
M  V30 23 C 6.4951 1.5 0.0 0
M  V30 24 C 3.8971 0.0 0.0 0
M  V30 25 C 5.1961 2.25 0.0 0
M  V30 26 C 3.8971 1.5 0.0 0
M  V30 27 C 2.598 -0.75 0.0 0
M  V30 28 O 2.598 2.25 0.0 0
M  V30 29 N 1.299 0.0 0.0 0
M  V30 30 C 1.299 1.5 0.0 0
M  V30 31 C 0.0 -0.75 0.0 0
M  V30 END ATOM
M  V30 BEGIN BOND
M  V30 1 2 1 2
M  V30 2 1 2 3
M  V30 3 1 2 4
M  V30 4 1 3 5
M  V30 5 1 3 6
M  V30 6 2 4 7
M  V30 7 1 4 8
M  V30 8 1 5 9
M  V30 9 2 5 10
M  V30 10 1 6 11
M  V30 11 1 12 7
M  V30 12 1 8 13
M  V30 13 2 9 14
M  V30 14 2 11 15
M  V30 15 1 12 16 CFG=3
M  V30 16 1 12 17
M  V30 17 1 12 18
M  V30 18 1 14 19
M  V30 19 1 15 20
M  V30 20 2 17 21
M  V30 21 1 18 22
M  V30 22 2 19 23
M  V30 23 2 20 24
M  V30 24 1 23 25
M  V30 25 1 24 26
M  V30 26 1 24 27
M  V30 27 1 26 28
M  V30 28 1 27 29
M  V30 29 1 29 30
M  V30 30 1 29 31
M  V30 31 1 7 10
M  V30 32 1 9 11
M  V30 33 1 13 17
M  V30 34 1 19 20
M  V30 35 2 25 26
M  V30 END BOND
M  V30 BEGIN COLLECTION
M  V30 MDLV30/STEABS ATOMS=(1 12)
M  V30 END COLLECTION
M  V30 END CTAB
M  END
>  <Column 1>
246

>  <Column 2>
PandemicResponseBox - Plate D

>  <Column 3>
F02

>  <Column 4>
MMV1633678

>  <Column 5>
10 mM

>  <Column 6>
ANTIVIRALS

>  <Column 7>
1

>  <Column 8>
Hydrochloric acid

>  <Column 9>
Topotecan

>  <Column 10>
O=[C]1[N]5C(=CC2=C1COC([C@]2(O)CC)=O)C4=NC3=CC=C(C(=C3C=C4C5)CN(C)C)O

>  <Column 11>
CHEMBL84

>  <Column 12>
Antimicrobial Agents and Chemotherapy�(1997),�41(5),�977-981

>  <Column 13>
457.9

>  <Column 14>
C23 H23 N3 O5

>  <Tox-Glu>
ATCTOX

>  <Column 15>


>  <Column 16>
38 

>  <Column 17>
61 

>  <Column 18>
59 

>  <Column 19>


>  <Tox-Gal>
CTOXGAL

>  <Column 20>


>  <Column 21>
63 

>  <Column 22>
84 

>  <Column 23>
94 

>  <Column 24>


>  <Column 25>


>  <PAMPA>
PAMPA

>  <Column 26>
150

>  <Column 27>


>  <Column 28>


>  <Mouse>
ATMETMOU

>  <Column 29>
21

>  <Column 30>


$$$$
Compound 248
Actelion Java MolfileCreator 2.0

  0  0  0  0  0  0              0 V3000
M  V30 BEGIN CTAB
M  V30 COUNTS 31 35 0 0 0
M  V30 BEGIN ATOM
M  V30 1 O 3.4641 -1.4999 0.0 0
M  V30 2 C 3.4641 -0.4999 0.0 0
M  V30 3 C 2.598 -2.0 0.0 0
M  V30 4 C 2.598 0.0 0.0 0
M  V30 5 C 4.3301 0.0 0.0 0
M  V30 6 C 2.598 1.0 0.0 0
M  V30 7 C 1.732 -0.5 0.0 0
M  V30 8 C 4.3301 1.0 0.0 0
M  V30 9 C 3.4641 1.5 0.0 0
M  V30 10 N 0.866 0.0 0.0 0
M  V30 11 C 0.0 -0.5 0.0 0 CFG=2
M  V30 12 C -0.866 0.0 0.0 0 CFG=1
M  V30 13 C 0.0 -1.4999 0.0 0
M  V30 14 N -1.732 -0.4999 0.0 0
M  V30 15 C -0.866 1.0 0.0 0
M  V30 16 C -0.956 -1.9063 0.0 0
M  V30 17 C -1.299 -2.7499 0.0 0
M  V30 18 C -1.6059 -1.5312 0.0 0
M  V30 19 C -2.165 -2.2499 0.0 0
M  V30 20 C 0.0 1.5 0.0 0
M  V30 21 C -1.732 1.5 0.0 0
M  V30 22 C 0.866 1.0 0.0 0
M  V30 23 C 0.0 2.5 0.0 0
M  V30 24 C -1.732 2.5 0.0 0
M  V30 25 C -2.598 1.0 0.0 0
M  V30 26 C 1.732 1.5 0.0 0
M  V30 27 C 0.866 3.0 0.0 0
M  V30 28 C -2.598 3.0 0.0 0
M  V30 29 C -3.4641 1.5 0.0 0
M  V30 30 C 1.732 2.5 0.0 0
M  V30 31 C -3.4641 2.5 0.0 0
M  V30 END ATOM
M  V30 BEGIN BOND
M  V30 1 1 1 2
M  V30 2 1 1 3
M  V30 3 2 2 4
M  V30 4 1 2 5
M  V30 5 1 4 6
M  V30 6 1 4 7
M  V30 7 2 5 8
M  V30 8 2 6 9
M  V30 9 1 7 10
M  V30 10 1 11 10 CFG=1
M  V30 11 1 12 11
M  V30 12 1 11 13
M  V30 13 1 12 14
M  V30 14 1 12 15 CFG=1
M  V30 15 1 13 16
M  V30 16 1 13 17
M  V30 17 1 14 18
M  V30 18 1 14 19
M  V30 19 1 15 20
M  V30 20 1 15 21
M  V30 21 2 20 22
M  V30 22 1 20 23
M  V30 23 2 21 24
M  V30 24 1 21 25
M  V30 25 1 22 26
M  V30 26 2 23 27
M  V30 27 1 24 28
M  V30 28 2 25 29
M  V30 29 2 26 30
M  V30 30 2 28 31
M  V30 31 1 8 9
M  V30 32 1 16 18
M  V30 33 1 17 19
M  V30 34 1 27 30
M  V30 35 1 29 31
M  V30 END BOND
M  V30 BEGIN COLLECTION
M  V30 MDLV30/STEABS ATOMS=(2 11 12)
M  V30 END COLLECTION
M  V30 END CTAB
M  END
>  <Column 1>
247

>  <Column 2>
PandemicResponseBox - Plate D

>  <Column 3>
G02

>  <Column 4>
MMV690480

>  <Column 5>
10 mM

>  <Column 6>
ANTIVIRALS

>  <Column 7>


>  <Column 8>
None

>  <Column 9>
CP 96345

>  <Column 10>
O(C1=C(C=CC=C1)CN[C@@H]2[C@@H](N3CCC2CC3)C(C4=CC=CC=C4)C5=CC=CC=C5)C

>  <Column 11>
CHEMBL16192

>  <Column 12>
Biological Psychiatry (2008), 63(9), 899-905

>  <Column 13>
412.6

>  <Column 14>
C28 H32 N2 O

>  <Tox-Glu>
ATCTOX

>  <Column 15>


>  <Column 16>
76 

>  <Column 17>
31 

>  <Column 18>
1 

>  <Column 19>


>  <Tox-Gal>
CTOXGAL

>  <Column 20>


>  <Column 21>
93 

>  <Column 22>
44 

>  <Column 23>
1 

>  <Column 24>


>  <Column 25>


>  <PAMPA>
PAMPA

>  <Column 26>
452

>  <Column 27>


>  <Column 28>


>  <Mouse>
ATMETMOU

>  <Column 29>
15

>  <Column 30>


$$$$
Compound 249
Actelion Java MolfileCreator 2.0

  0  0  0  0  0  0              0 V3000
M  V30 BEGIN CTAB
M  V30 COUNTS 31 33 0 0 0
M  V30 BEGIN ATOM
M  V30 1 F 8.6678 1.6064 0.0 0
M  V30 2 C 9.5813 1.1997 0.0 0
M  V30 3 F 9.988 2.1132 0.0 0
M  V30 4 F 10.4948 0.793 0.0 0
M  V30 5 C 9.1746 0.2861 0.0 0
M  V30 6 C 8.18 0.1816 0.0 0
M  V30 7 C 9.7623 -0.5228 0.0 0
M  V30 8 C 7.7733 -0.7318 0.0 0
M  V30 9 C 9.3556 -1.4363 0.0 0
M  V30 10 C 6.7788 -0.8364 0.0 0
M  V30 11 C 8.3611 -1.5408 0.0 0
M  V30 12 C 9.9434 -2.2453 0.0 0
M  V30 13 N 6.1096 -0.0932 0.0 0
M  V30 14 N 6.2788 -1.7024 0.0 0
M  V30 15 F 10.7524 -1.6575 0.0 0
M  V30 16 F 10.5312 -3.0544 0.0 0
M  V30 17 F 9.1344 -2.8331 0.0 0
M  V30 18 N 5.1961 -0.5 0.0 0
M  V30 19 C 5.3006 -1.4945 0.0 0
M  V30 20 C 4.3301 0.0 0.0 0
M  V30 21 C 3.4641 -0.5 0.0 0
M  V30 22 C 2.598 0.0 0.0 0
M  V30 23 O 2.598 1.0 0.0 0
M  V30 24 N 1.732 -0.5 0.0 0
M  V30 25 N 0.866 0.0 0.0 0
M  V30 26 C 0.0 -0.5 0.0 0
M  V30 27 N -0.866 0.0 0.0 0
M  V30 28 C 0.0 -1.4999 0.0 0
M  V30 29 C -1.732 -0.4999 0.0 0
M  V30 30 N -0.866 -1.9999 0.0 0
M  V30 31 C -1.732 -1.4999 0.0 0
M  V30 END ATOM
M  V30 BEGIN BOND
M  V30 1 1 1 2
M  V30 2 1 2 3
M  V30 3 1 2 4
M  V30 4 1 2 5
M  V30 5 2 5 6
M  V30 6 1 5 7
M  V30 7 1 6 8
M  V30 8 2 7 9
M  V30 9 1 8 10
M  V30 10 2 8 11
M  V30 11 1 9 12
M  V30 12 2 10 13
M  V30 13 1 10 14
M  V30 14 1 12 15
M  V30 15 1 12 16
M  V30 16 1 12 17
M  V30 17 1 13 18
M  V30 18 2 14 19
M  V30 19 1 18 20
M  V30 20 2 20 21
M  V30 21 1 21 22
M  V30 22 2 22 23
M  V30 23 1 22 24
M  V30 24 1 24 25
M  V30 25 1 25 26
M  V30 26 2 26 27
M  V30 27 1 26 28
M  V30 28 1 27 29
M  V30 29 2 28 30
M  V30 30 2 29 31
M  V30 31 1 9 11
M  V30 32 1 18 19
M  V30 33 1 30 31
M  V30 END BOND
M  V30 END CTAB
M  END
>  <Column 1>
248

>  <Column 2>
PandemicResponseBox - Plate D

>  <Column 3>
H02

>  <Column 4>
MMV1593517

>  <Column 5>
10 mM

>  <Column 6>
ANTIVIRALS

>  <Column 7>


>  <Column 8>
None

>  <Column 9>
Selinexor

>  <Column 10>
FC(F)(F)C1=CC(=CC(=C1)C(F)(F)F)C3=N[N](\C=C\C(=O)NNC2=NC=CN=C2)C=N3

>  <Column 11>
CHEMBL3545185

>  <Column 12>


>  <Column 13>
443.3

>  <Column 14>
C17 H11 F6 N7 O

>  <Tox-Glu>
ATCTOX

>  <Column 15>


>  <Column 16>
75 

>  <Column 17>
19 

>  <Column 18>
8 

>  <Column 19>


>  <Tox-Gal>
CTOXGAL

>  <Column 20>


>  <Column 21>
98 

>  <Column 22>
29 

>  <Column 23>
11 

>  <Column 24>


>  <Column 25>


>  <PAMPA>
PAMPA

>  <Column 26>
276

>  <Column 27>


>  <Column 28>


>  <Mouse>
ATMETMOU

>  <Column 29>
53

>  <Column 30>
Large variations

$$$$
Compound 250
Actelion Java MolfileCreator 2.0

  0  0  0  0  0  0              0 V3000
M  V30 BEGIN CTAB
M  V30 COUNTS 36 40 0 0 0
M  V30 BEGIN ATOM
M  V30 1 F 6.0621 8.9999 0.0 0
M  V30 2 C 6.9282 8.4999 0.0 0
M  V30 3 C 6.9282 7.4999 0.0 0
M  V30 4 C 7.7942 8.9999 0.0 0
M  V30 5 C 7.7942 7.0 0.0 0
M  V30 6 C 8.6602 8.5 0.0 0
M  V30 7 C 7.7942 5.9999 0.0 0
M  V30 8 C 8.6602 7.5 0.0 0
M  V30 9 C 6.9282 5.4999 0.0 0
M  V30 10 C 8.6602 5.4999 0.0 0
M  V30 11 N 6.9282 4.4999 0.0 0
M  V30 12 C 8.6602 4.5 0.0 0
M  V30 13 C 7.7942 3.9999 0.0 0
M  V30 14 C 7.7942 2.9999 0.0 0
M  V30 15 C 6.9282 2.4999 0.0 0
M  V30 16 C 6.9282 1.4999 0.0 0 CFG=1
M  V30 17 C 6.0621 0.9999 0.0 0 CFG=1
M  V30 18 C 7.7942 0.9999 0.0 0 CFG=1
M  V30 19 C 6.0621 0.0 0.0 0 CFG=1
M  V30 20 C 5.1961 1.4999 0.0 0
M  V30 21 C 7.7942 0.0 0.0 0 CFG=1
M  V30 22 C 8.7452 1.309 0.0 0 CFG=2
M  V30 23 C 5.1961 -0.5 0.0 0
M  V30 24 C 6.9282 -0.5 0.0 0
M  V30 25 C 4.3301 0.9999 0.0 0
M  V30 26 C 8.7452 -0.309 0.0 0
M  V30 27 O 9.333 0.4999 0.0 0
M  V30 28 C 9.0543 2.26 0.0 0
M  V30 29 C 4.3301 0.0 0.0 0 CFG=1
M  V30 30 O 9.0543 -1.26 0.0 0
M  V30 31 N 3.4641 -0.5 0.0 0
M  V30 32 C 2.598 0.0 0.0 0
M  V30 33 O 2.598 1.0 0.0 0
M  V30 34 O 1.732 -0.5 0.0 0
M  V30 35 C 0.866 0.0 0.0 0
M  V30 36 C 0.0 -0.5 0.0 0
M  V30 END ATOM
M  V30 BEGIN BOND
M  V30 1 1 1 2
M  V30 2 2 2 3
M  V30 3 1 2 4
M  V30 4 1 3 5
M  V30 5 2 4 6
M  V30 6 1 5 7
M  V30 7 2 5 8
M  V30 8 2 7 9
M  V30 9 1 7 10
M  V30 10 1 9 11
M  V30 11 2 10 12
M  V30 12 2 11 13
M  V30 13 1 13 14
M  V30 14 2 14 15
M  V30 15 1 16 15 CFG=3
M  V30 16 1 17 16
M  V30 17 1 18 16 CFG=3
M  V30 18 1 19 17
M  V30 19 1 17 20 CFG=1
M  V30 20 1 21 18
M  V30 21 1 22 18
M  V30 22 1 19 23 CFG=3
M  V30 23 1 19 24
M  V30 24 1 20 25
M  V30 25 1 21 26
M  V30 26 1 22 27
M  V30 27 1 22 28 CFG=1
M  V30 28 1 29 23
M  V30 29 2 26 30
M  V30 30 1 29 31 CFG=3
M  V30 31 1 31 32
M  V30 32 2 32 33
M  V30 33 1 32 34
M  V30 34 1 34 35
M  V30 35 1 35 36
M  V30 36 1 6 8
M  V30 37 1 12 13
M  V30 38 1 21 24 CFG=3
M  V30 39 1 25 29
M  V30 40 1 26 27
M  V30 END BOND
M  V30 BEGIN COLLECTION
M  V30 MDLV30/STEABS ATOMS=(7 16 17 18 19 21 22 29)
M  V30 END COLLECTION
M  V30 END CTAB
M  END
>  <Column 1>
249

>  <Column 2>
PandemicResponseBox - Plate D

>  <Column 3>
A03

>  <Column 4>
MMV1593515

>  <Column 5>
10 mM

>  <Column 6>
ANTIVIRALS

>  <Column 7>


>  <Column 8>
None

>  <Column 9>
Vorapaxar

>  <Column 10>
CCOC(=O)N[C@@H]1CC[C@@H]2[C@@H](C1)C[C@@H]3[C@@H]([C@@H](C)OC3=O)[C@H]2\C=C\c4ccc(cn4)c5cccc(F)c5

>  <Column 11>
CHEMBL493982

>  <Column 12>
US 20140378502 A1

>  <Column 13>
492.6

>  <Column 14>
C29 H33 F N2 O4

>  <Tox-Glu>
ATCTOX

>  <Column 15>


>  <Column 16>
90 

>  <Column 17>
88 

>  <Column 18>
84 

>  <Column 19>


>  <Tox-Gal>
CTOXGAL

>  <Column 20>


>  <Column 21>
97 

>  <Column 22>
95 

>  <Column 23>
90 

>  <Column 24>


>  <Column 25>


>  <PAMPA>
PAMPA

>  <Column 26>
424

>  <Column 27>


>  <Column 28>


>  <Mouse>
ATMETMOU

>  <Column 29>
-14

>  <Column 30>


$$$$
Compound 251
Actelion Java MolfileCreator 2.0

  0  0  0  0  0  0              0 V3000
M  V30 BEGIN CTAB
M  V30 COUNTS 23 25 0 0 0
M  V30 BEGIN ATOM
M  V30 1 Cl 4.3301 0.9999 0.0 0
M  V30 2 C 4.3301 0.0 0.0 0
M  V30 3 C 3.4641 -0.5 0.0 0
M  V30 4 C 5.1961 -0.5 0.0 0
M  V30 5 N 2.598 0.0 0.0 0
M  V30 6 C 3.4641 -1.5 0.0 0
M  V30 7 C 5.1961 -1.5 0.0 0
M  V30 8 C 1.732 -0.5 0.0 0
M  V30 9 C 2.598 -2.0 0.0 0
M  V30 10 C 4.3301 -2.0 0.0 0
M  V30 11 N 0.866 0.0 0.0 0
M  V30 12 C 1.732 -1.4999 0.0 0
M  V30 13 C 0.0 -0.5 0.0 0
M  V30 14 C -0.866 0.0 0.0 0
M  V30 15 C 0.0 -1.4999 0.0 0
M  V30 16 C -1.732 -0.4999 0.0 0
M  V30 17 C -0.866 -1.9999 0.0 0
M  V30 18 C -1.732 -1.4999 0.0 0
M  V30 19 O -2.598 -1.9999 0.0 0
M  V30 20 C -2.598 -2.9999 0.0 0
M  V30 21 F -1.598 -2.9999 0.0 0
M  V30 22 F -2.598 -3.9999 0.0 0
M  V30 23 F -3.598 -2.9999 0.0 0
M  V30 END ATOM
M  V30 BEGIN BOND
M  V30 1 1 1 2
M  V30 2 1 2 3
M  V30 3 2 2 4
M  V30 4 2 3 5
M  V30 5 1 3 6
M  V30 6 1 4 7
M  V30 7 1 5 8
M  V30 8 2 6 9
M  V30 9 1 6 10
M  V30 10 1 8 11
M  V30 11 2 8 12
M  V30 12 1 11 13
M  V30 13 2 13 14
M  V30 14 1 13 15
M  V30 15 1 14 16
M  V30 16 2 15 17
M  V30 17 2 16 18
M  V30 18 1 18 19
M  V30 19 1 19 20
M  V30 20 1 20 21
M  V30 21 1 20 22
M  V30 22 1 20 23
M  V30 23 2 7 10
M  V30 24 1 9 12
M  V30 25 1 17 18
M  V30 END BOND
M  V30 END CTAB
M  END
>  <Column 1>
250

>  <Column 2>
PandemicResponseBox - Plate D

>  <Column 3>
B03

>  <Column 4>
MMV1581032

>  <Column 5>
10 mM

>  <Column 6>
ANTIVIRALS

>  <Column 7>
1

>  <Column 8>
Free Base/Acid

>  <Column 9>
ABX 464

>  <Column 10>
ClC1=CC=CC2=CC=C(N=C12)NC3=CC=C(OC(F)(F)F)C=C3

>  <Column 11>
NA

>  <Column 12>
Journal of Antimicrobial Chemotherapy�(2017),�72(3),�820-828;WO 2017158201 

>  <Column 13>
338.7

>  <Column 14>
C16 H10 Cl F3 N2 O

>  <Tox-Glu>
ATCTOX

>  <Column 15>


>  <Column 16>
72 

>  <Column 17>
1 

>  <Column 18>
1 

>  <Column 19>


>  <Tox-Gal>
CTOXGAL

>  <Column 20>


>  <Column 21>
87 

>  <Column 22>
1 

>  <Column 23>
1 

>  <Column 24>


>  <Column 25>


>  <PAMPA>
PAMPA

>  <Column 26>
18

>  <Column 27>


>  <Column 28>


>  <Mouse>
ATMETMOU

>  <Column 29>
64

>  <Column 30>


$$$$
Compound 252
Actelion Java MolfileCreator 2.0

  0  0  0  0  0  0              0 V3000
M  V30 BEGIN CTAB
M  V30 COUNTS 30 33 0 0 0
M  V30 BEGIN ATOM
M  V30 1 O 6.4951 6.0 0.0 0
M  V30 2 C 6.4951 4.5 0.0 0
M  V30 3 O 5.1961 3.75 0.0 0
M  V30 4 C 7.7942 3.75 0.0 0
M  V30 5 C 5.1961 2.25 0.0 0
M  V30 6 C 7.7942 2.25 0.0 0
M  V30 7 C 9.0932 4.5 0.0 0
M  V30 8 C 6.4951 1.5 0.0 0
M  V30 9 C 3.8971 1.5 0.0 0
M  V30 10 C 9.0932 1.4999 0.0 0
M  V30 11 C 10.3923 3.75 0.0 0
M  V30 12 C 6.4951 0.0 0.0 0
M  V30 13 C 3.8971 0.0 0.0 0
M  V30 14 C 10.3923 2.25 0.0 0
M  V30 15 C 11.6913 4.5 0.0 0 CFG=1
M  V30 16 C 5.1961 -0.7499 0.0 0
M  V30 17 O 2.598 -0.75 0.0 0
M  V30 18 O 12.9903 3.75 0.0 0
M  V30 19 C 11.6913 6.0 0.0 0
M  V30 20 O 5.1961 -2.25 0.0 0
M  V30 21 C 1.299 0.0 0.0 0
M  V30 22 C 6.4951 -3.0 0.0 0
M  V30 23 C 0.0 -0.75 0.0 0
M  V30 24 C -1.299 0.0 0.0 0
M  V30 25 C 0.0 -2.25 0.0 0
M  V30 26 C -2.598 -0.7499 0.0 0
M  V30 27 C -1.299 -2.9999 0.0 0
M  V30 28 C -2.598 -2.2499 0.0 0
M  V30 29 O -3.8971 -2.9999 0.0 0
M  V30 30 C -3.8971 -4.4999 0.0 0
M  V30 END ATOM
M  V30 BEGIN BOND
M  V30 1 2 1 2
M  V30 2 1 2 3
M  V30 3 1 2 4
M  V30 4 1 3 5
M  V30 5 2 4 6
M  V30 6 1 4 7
M  V30 7 2 5 8
M  V30 8 1 5 9
M  V30 9 1 6 10
M  V30 10 2 7 11
M  V30 11 1 8 12
M  V30 12 2 9 13
M  V30 13 2 10 14
M  V30 14 1 15 11
M  V30 15 2 12 16
M  V30 16 1 13 17
M  V30 17 1 15 18 CFG=3
M  V30 18 1 15 19
M  V30 19 1 16 20
M  V30 20 1 17 21
M  V30 21 1 20 22
M  V30 22 1 21 23
M  V30 23 2 23 24
M  V30 24 1 23 25
M  V30 25 1 24 26
M  V30 26 2 25 27
M  V30 27 2 26 28
M  V30 28 1 28 29
M  V30 29 1 29 30
M  V30 30 1 6 8
M  V30 31 1 11 14
M  V30 32 1 13 16
M  V30 33 1 27 28
M  V30 END BOND
M  V30 BEGIN COLLECTION
M  V30 MDLV30/STERAC1 ATOMS=(1 15)
M  V30 END COLLECTION
M  V30 END CTAB
M  END
>  <Column 1>
251

>  <Column 2>
PandemicResponseBox - Plate D

>  <Column 3>
C03

>  <Column 4>
MMV1580799

>  <Column 5>
10 mM

>  <Column 6>
ANTIVIRALS

>  <Column 7>


>  <Column 8>
None

>  <Column 9>
Palomid 529

>  <Column 10>
O=[C]3OC1=C(C=C(OC)C(=C1)OCC2=CC=C(OC)C=C2)C4=C3C=C(C(O)C)C=C4

>  <Column 11>
CHEMBL2141712

>  <Column 12>
WO2012103524

>  <Column 13>
406.4

>  <Column 14>
C24 H22 O6

>  <Tox-Glu>
ATCTOX

>  <Column 15>


>  <Column 16>
50 

>  <Column 17>
37 

>  <Column 18>
13 

>  <Column 19>


>  <Tox-Gal>
CTOXGAL

>  <Column 20>


>  <Column 21>
56 

>  <Column 22>
30 

>  <Column 23>
12 

>  <Column 24>


>  <Column 25>


>  <PAMPA>
PAMPA

>  <Column 26>
388

>  <Column 27>


>  <Column 28>


>  <Mouse>
ATMETMOU

>  <Column 29>
46

>  <Column 30>


$$$$
Compound 253
Actelion Java MolfileCreator 2.0

  0  0  0  0  0  0              0 V3000
M  V30 BEGIN CTAB
M  V30 COUNTS 13 13 0 0 0
M  V30 BEGIN ATOM
M  V30 1 O 9.0932 -4.5 0.0 0
M  V30 2 C 9.0932 -3.0 0.0 0
M  V30 3 O 10.3923 -2.25 0.0 0
M  V30 4 C 7.7942 -2.2499 0.0 0
M  V30 5 N 7.7942 -0.75 0.0 0
M  V30 6 C 6.4951 -2.9999 0.0 0
M  V30 7 C 6.4951 0.0 0.0 0
M  V30 8 C 5.1961 -2.25 0.0 0
M  V30 9 C 5.1961 -0.75 0.0 0
M  V30 10 C 3.8971 0.0 0.0 0
M  V30 11 C 2.598 -0.75 0.0 0
M  V30 12 C 1.299 0.0 0.0 0
M  V30 13 C 0.0 -0.75 0.0 0
M  V30 END ATOM
M  V30 BEGIN BOND
M  V30 1 2 1 2
M  V30 2 1 2 3
M  V30 3 1 2 4
M  V30 4 2 4 5
M  V30 5 1 4 6
M  V30 6 1 5 7
M  V30 7 2 6 8
M  V30 8 2 7 9
M  V30 9 1 9 10
M  V30 10 1 10 11
M  V30 11 1 11 12
M  V30 12 1 12 13
M  V30 13 1 8 9
M  V30 END BOND
M  V30 END CTAB
M  END
>  <Column 1>
252

>  <Column 2>
PandemicResponseBox - Plate D

>  <Column 3>
D03

>  <Column 4>
MMV001726

>  <Column 5>
10 mM

>  <Column 6>
ANTIVIRALS

>  <Column 7>


>  <Column 8>
None

>  <Column 9>
Fusaric acid

>  <Column 10>
O=C(O)C1=NC=C(CCCC)C=C1

>  <Column 11>
CHEMBL24510

>  <Column 12>
WO�2003006062, US 20100015174 

>  <Column 13>
179.2

>  <Column 14>
C10H13NO2

>  <Tox-Glu>
ATCTOX

>  <Column 15>


>  <Column 16>
85 

>  <Column 17>
90 

>  <Column 18>
79 

>  <Column 19>


>  <Tox-Gal>
CTOXGAL

>  <Column 20>


>  <Column 21>
91 

>  <Column 22>
100 

>  <Column 23>
93 

>  <Column 24>


>  <Column 25>


>  <PAMPA>
PAMPA

>  <Column 26>
undetected

>  <Column 27>
low sensitivity

>  <Column 28>


>  <Mouse>
ATMETMOU

>  <Column 29>


>  <Column 30>
Not determined; Large blank peak

$$$$
Compound 254
Actelion Java MolfileCreator 2.0

  0  0  0  0  0  0              0 V3000
M  V30 BEGIN CTAB
M  V30 COUNTS 41 45 0 0 0
M  V30 BEGIN ATOM
M  V30 1 F 6.0621 0.0 0.0 0
M  V30 2 C 5.1961 -0.4999 0.0 0
M  V30 3 C 4.3301 0.0 0.0 0
M  V30 4 C 5.1961 -1.4999 0.0 0
M  V30 5 N 4.3301 1.0 0.0 0
M  V30 6 C 3.4641 -0.4999 0.0 0
M  V30 7 C 4.3301 -1.9999 0.0 0
M  V30 8 C 3.4641 1.5 0.0 0
M  V30 9 C 3.4641 -1.4999 0.0 0
M  V30 10 C 2.598 0.0 0.0 0 CFG=1
M  V30 11 N 2.598 0.9999 0.0 0
M  V30 12 N 3.4641 2.5 0.0 0
M  V30 13 C 1.732 -0.5 0.0 0
M  V30 14 C 1.732 1.4999 0.0 0
M  V30 15 C 4.3301 3.0 0.0 0
M  V30 16 C 2.598 3.0 0.0 0
M  V30 17 C 1.732 -1.5 0.0 0
M  V30 18 C 0.866 0.9999 0.0 0
M  V30 19 C 1.732 2.4999 0.0 0
M  V30 20 C 4.3301 4.0 0.0 0
M  V30 21 C 2.598 4.0 0.0 0
M  V30 22 O 2.598 -2.0 0.0 0
M  V30 23 O 0.866 -2.0 0.0 0
M  V30 24 O 0.866 0.0 0.0 0
M  V30 25 C 0.0 1.4999 0.0 0
M  V30 26 C 0.866 2.9999 0.0 0
M  V30 27 N 3.4641 4.5 0.0 0
M  V30 28 C 0.0 -0.5 0.0 0
M  V30 29 C 0.0 2.4999 0.0 0
M  V30 30 C 0.866 3.9999 0.0 0
M  V30 31 C 3.4641 5.5 0.0 0
M  V30 32 F 1.866 4.0 0.0 0
M  V30 33 F 0.866 4.9999 0.0 0
M  V30 34 F -0.1339 3.9999 0.0 0
M  V30 35 C 4.3301 6.0 0.0 0
M  V30 36 C 2.598 6.0 0.0 0
M  V30 37 C 4.3301 7.0 0.0 0
M  V30 38 C 2.598 7.0 0.0 0
M  V30 39 O 5.1961 7.5 0.0 0
M  V30 40 C 3.4641 7.5 0.0 0
M  V30 41 C 5.1961 8.5 0.0 0
M  V30 END ATOM
M  V30 BEGIN BOND
M  V30 1 1 1 2
M  V30 2 2 2 3
M  V30 3 1 2 4
M  V30 4 1 3 5
M  V30 5 1 3 6
M  V30 6 2 4 7
M  V30 7 2 5 8
M  V30 8 2 6 9
M  V30 9 1 10 6
M  V30 10 1 8 11
M  V30 11 1 8 12
M  V30 12 1 10 13 CFG=3
M  V30 13 1 11 14
M  V30 14 1 12 15
M  V30 15 1 12 16
M  V30 16 1 13 17
M  V30 17 2 14 18
M  V30 18 1 14 19
M  V30 19 1 15 20
M  V30 20 1 16 21
M  V30 21 2 17 22
M  V30 22 1 17 23
M  V30 23 1 18 24
M  V30 24 1 18 25
M  V30 25 2 19 26
M  V30 26 1 20 27
M  V30 27 1 24 28
M  V30 28 2 25 29
M  V30 29 1 26 30
M  V30 30 1 27 31
M  V30 31 1 30 32
M  V30 32 1 30 33
M  V30 33 1 30 34
M  V30 34 2 31 35
M  V30 35 1 31 36
M  V30 36 1 35 37
M  V30 37 2 36 38
M  V30 38 1 37 39
M  V30 39 2 37 40
M  V30 40 1 39 41
M  V30 41 1 7 9
M  V30 42 1 10 11
M  V30 43 1 21 27
M  V30 44 1 26 29
M  V30 45 1 38 40
M  V30 END BOND
M  V30 BEGIN COLLECTION
M  V30 MDLV30/STEABS ATOMS=(1 10)
M  V30 END COLLECTION
M  V30 END CTAB
M  END
>  <Column 1>
253

>  <Column 2>
PandemicResponseBox - Plate D

>  <Column 3>
E03

>  <Column 4>
MMV690653

>  <Column 5>
10 mM

>  <Column 6>
ANTIVIRALS

>  <Column 7>


>  <Column 8>
None

>  <Column 9>
Letermovir

>  <Column 10>
FC3=C2N=C(N(C1=C(OC)C=CC(=C1)C(F)(F)F)[C@H](C2=CC=C3)CC(=O)O)N5CCN(C4=CC(=CC=C4)OC)CC5

>  <Column 11>
CHEMBL1241951

>  <Column 12>


>  <Column 13>
572.6

>  <Column 14>
C29 H28 F4 N4 O4

>  <Tox-Glu>
ATCTOX

>  <Column 15>


>  <Column 16>
97 

>  <Column 17>
95 

>  <Column 18>
61 

>  <Column 19>


>  <Tox-Gal>
CTOXGAL

>  <Column 20>


>  <Column 21>
96 

>  <Column 22>
101 

>  <Column 23>
39 

>  <Column 24>


>  <Column 25>


>  <PAMPA>
PAMPA

>  <Column 26>
338

>  <Column 27>


>  <Column 28>


>  <Mouse>
ATMETMOU

>  <Column 29>
-12

>  <Column 30>


$$$$
Compound 255
Actelion Java MolfileCreator 2.0

  0  0  0  0  0  0              0 V3000
M  V30 BEGIN CTAB
M  V30 COUNTS 27 29 0 0 0
M  V30 BEGIN ATOM
M  V30 1 S 2.598 2.25 0.0 0
M  V30 2 C 3.8971 1.5 0.0 0
M  V30 3 C 2.598 3.7499 0.0 0
M  V30 4 C 3.8971 0.0 0.0 0
M  V30 5 C 5.1961 2.25 0.0 0
M  V30 6 C 1.299 4.4999 0.0 0
M  V30 7 C 3.8971 4.5 0.0 0
M  V30 8 C 2.598 -0.75 0.0 0
M  V30 9 C 5.1961 -0.75 0.0 0
M  V30 10 C 6.4951 1.5 0.0 0
M  V30 11 C 1.299 5.9999 0.0 0
M  V30 12 C 3.8971 6.0 0.0 0
M  V30 13 O 1.299 0.0 0.0 0
M  V30 14 N 2.598 -2.25 0.0 0
M  V30 15 C 6.4951 0.0 0.0 0
M  V30 16 C 2.598 6.7499 0.0 0
M  V30 17 C 1.299 -3.0 0.0 0
M  V30 18 N 2.598 8.25 0.0 0 CHG=1 VAL=5
M  V30 19 C 1.299 -4.5 0.0 0
M  V30 20 C 0.0 -2.25 0.0 0
M  V30 21 O 1.299 8.9999 0.0 0
M  V30 22 O 3.8971 9.0 0.0 0 CHG=-1
M  V30 23 O 2.598 -5.2499 0.0 0
M  V30 24 C 0.0 -5.25 0.0 0
M  V30 25 C -1.299 -3.0 0.0 0
M  V30 26 C 2.598 -6.75 0.0 0
M  V30 27 C -1.299 -4.5 0.0 0
M  V30 END ATOM
M  V30 BEGIN BOND
M  V30 1 1 1 2
M  V30 2 1 1 3
M  V30 3 2 2 4
M  V30 4 1 2 5
M  V30 5 2 3 6
M  V30 6 1 3 7
M  V30 7 1 4 8
M  V30 8 1 4 9
M  V30 9 2 5 10
M  V30 10 1 6 11
M  V30 11 2 7 12
M  V30 12 2 8 13
M  V30 13 1 8 14
M  V30 14 2 9 15
M  V30 15 2 11 16
M  V30 16 1 14 17
M  V30 17 1 16 18
M  V30 18 2 17 19
M  V30 19 1 17 20
M  V30 20 2 18 21
M  V30 21 1 18 22
M  V30 22 1 19 23
M  V30 23 1 19 24
M  V30 24 2 20 25
M  V30 25 1 23 26
M  V30 26 2 24 27
M  V30 27 1 10 15
M  V30 28 1 12 16
M  V30 29 1 25 27
M  V30 END BOND
M  V30 END CTAB
M  END
>  <Column 1>
254

>  <Column 2>
PandemicResponseBox - Plate D

>  <Column 3>
F03

>  <Column 4>
MMV1580484

>  <Column 5>
10 mM

>  <Column 6>
ANTIVIRALS

>  <Column 7>


>  <Column 8>
None

>  <Column 9>


>  <Column 10>
S(C2=C(C(=O)NC1=C(OC)C=CC=C1)C=CC=C2)C3=CC=C([N](=O)=O)C=C3

>  <Column 11>
CHEMBL1213418

>  <Column 12>


>  <Column 13>
380.4

>  <Column 14>
C20 H16 N2 O4 S

>  <Tox-Glu>
ATCTOX

>  <Column 15>


>  <Column 16>
95 

>  <Column 17>
93 

>  <Column 18>
86 

>  <Column 19>


>  <Tox-Gal>
CTOXGAL

>  <Column 20>


>  <Column 21>
96 

>  <Column 22>
93 

>  <Column 23>
90 

>  <Column 24>


>  <Column 25>


>  <PAMPA>
PAMPA

>  <Column 26>
undetected

>  <Column 27>
low sensitivity

>  <Column 28>


>  <Mouse>
ATMETMOU

>  <Column 29>
677

>  <Column 30>


$$$$
Compound 256
Actelion Java MolfileCreator 2.0

  0  0  0  0  0  0              0 V3000
M  V30 BEGIN CTAB
M  V30 COUNTS 19 20 0 0 0
M  V30 BEGIN ATOM
M  V30 1 P 4.3301 0.0 0.0 0
M  V30 2 O 4.8301 -0.866 0.0 0
M  V30 3 O 5.1961 0.4999 0.0 0
M  V30 4 O 3.8301 0.866 0.0 0
M  V30 5 C 3.4641 -0.5 0.0 0
M  V30 6 O 2.598 0.0 0.0 0
M  V30 7 C 1.732 -0.5 0.0 0 CFG=1
M  V30 8 C 0.866 0.0 0.0 0
M  V30 9 C 1.732 -1.5 0.0 0
M  V30 10 N 0.0 -0.5 0.0 0
M  V30 11 C -0.9135 -0.0932 0.0 0
M  V30 12 C -0.1045 -1.4945 0.0 0
M  V30 13 N -1.2225 0.8577 0.0 0
M  V30 14 C -1.5826 -0.8364 0.0 0
M  V30 15 N -1.0826 -1.7024 0.0 0
M  V30 16 C -2.2007 1.0657 0.0 0
M  V30 17 C -2.5608 -0.6284 0.0 0
M  V30 18 N -2.8698 0.3225 0.0 0
M  V30 19 N -3.2299 -1.3716 0.0 0
M  V30 END ATOM
M  V30 BEGIN BOND
M  V30 1 2 1 2
M  V30 2 1 1 3
M  V30 3 1 1 4
M  V30 4 1 1 5
M  V30 5 1 5 6
M  V30 6 1 7 6 CFG=3
M  V30 7 1 7 8
M  V30 8 1 7 9
M  V30 9 1 8 10
M  V30 10 1 10 11
M  V30 11 1 10 12
M  V30 12 2 11 13
M  V30 13 1 11 14
M  V30 14 2 12 15
M  V30 15 1 13 16
M  V30 16 2 14 17
M  V30 17 2 16 18
M  V30 18 1 17 19
M  V30 19 1 14 15
M  V30 20 1 17 18
M  V30 END BOND
M  V30 BEGIN COLLECTION
M  V30 MDLV30/STEABS ATOMS=(1 7)
M  V30 END COLLECTION
M  V30 END CTAB
M  END
>  <Column 1>
255

>  <Column 2>
PandemicResponseBox - Plate D

>  <Column 3>
G03

>  <Column 4>
MMV1580478

>  <Column 5>
10 mM

>  <Column 6>
ANTIVIRALS

>  <Column 7>


>  <Column 8>
None

>  <Column 9>
Tenofovir

>  <Column 10>
[P](=O)(O)(O)CO[C@@H](C[N]2C1=NC=NC(=C1N=C2)N)C

>  <Column 11>
CHEMBL483

>  <Column 12>


>  <Column 13>
287.2

>  <Column 14>
C9 H14 N5 O4 P

>  <Tox-Glu>
ATCTOX

>  <Column 15>


>  <Column 16>
92 

>  <Column 17>
97 

>  <Column 18>
92 

>  <Column 19>


>  <Tox-Gal>
CTOXGAL

>  <Column 20>


>  <Column 21>
98 

>  <Column 22>
99 

>  <Column 23>
98 

>  <Column 24>


>  <Column 25>


>  <PAMPA>
PAMPA

>  <Column 26>
undetected

>  <Column 27>
low sensitivity

>  <Column 28>


>  <Mouse>
ATMETMOU

>  <Column 29>


>  <Column 30>
Not determined; Low sensitivity

$$$$
Compound 257
Actelion Java MolfileCreator 2.0

  0  0  0  0  0  0              0 V3000
M  V30 BEGIN CTAB
M  V30 COUNTS 21 21 0 0 0
M  V30 BEGIN ATOM
M  V30 1 O 11.6913 -3.0 0.0 0
M  V30 2 C 10.3923 -2.25 0.0 0
M  V30 3 C 12.9904 -2.25 0.0 0
M  V30 4 C 10.3923 -0.75 0.0 0
M  V30 5 C 9.0932 -3.0 0.0 0
M  V30 6 O 11.6913 0.0 0.0 0
M  V30 7 C 9.0932 0.0 0.0 0
M  V30 8 O 9.0932 -4.5 0.0 0
M  V30 9 C 7.7942 -2.25 0.0 0
M  V30 10 C 11.6913 1.5 0.0 0
M  V30 11 C 7.7942 -0.75 0.0 0
M  V30 12 C 10.3923 -5.25 0.0 0
M  V30 13 C 6.4952 0.0 0.0 0
M  V30 14 C 5.1961 -0.75 0.0 0
M  V30 15 C 7.2452 1.299 0.0 0
M  V30 16 C 5.7452 1.299 0.0 0
M  V30 17 C 3.8971 0.0 0.0 0
M  V30 18 C 2.598 -0.75 0.0 0
M  V30 19 C 1.299 0.0 0.0 0
M  V30 20 C 1.299 1.5 0.0 0
M  V30 21 C 0.0 -0.75 0.0 0
M  V30 END ATOM
M  V30 BEGIN BOND
M  V30 1 1 1 2
M  V30 2 1 1 3
M  V30 3 2 2 4
M  V30 4 1 2 5
M  V30 5 1 4 6
M  V30 6 1 4 7
M  V30 7 1 5 8
M  V30 8 2 5 9
M  V30 9 1 6 10
M  V30 10 2 7 11
M  V30 11 1 8 12
M  V30 12 1 11 13
M  V30 13 1 13 14
M  V30 14 1 13 15
M  V30 15 1 13 16
M  V30 16 1 14 17
M  V30 17 1 17 18
M  V30 18 1 18 19
M  V30 19 1 19 20
M  V30 20 1 19 21
M  V30 21 1 9 11
M  V30 END BOND
M  V30 END CTAB
M  END
>  <Column 1>
256

>  <Column 2>
PandemicResponseBox - Plate D

>  <Column 3>
H03

>  <Column 4>
MMV1782102

>  <Column 5>
10 mM

>  <Column 6>
ANTIVIRALS

>  <Column 7>


>  <Column 8>
None

>  <Column 9>


>  <Column 10>
O(C1=C(OC)C=C(C(CCCC(C)C)(C)C)C=C1OC)C

>  <Column 11>
NA

>  <Column 12>
WO�2003080043

>  <Column 13>
294.4

>  <Column 14>
C18 H30 O3

>  <Tox-Glu>
ATCTOX

>  <Column 15>


>  <Column 16>
92 

>  <Column 17>
63 

>  <Column 18>
1 

>  <Column 19>


>  <Tox-Gal>
CTOXGAL

>  <Column 20>


>  <Column 21>
98 

>  <Column 22>
14 

>  <Column 23>
0 

>  <Column 24>


>  <Column 25>


>  <PAMPA>
PAMPA

>  <Column 26>
178

>  <Column 27>


>  <Column 28>


>  <Mouse>
ATMETMOU

>  <Column 29>
279

>  <Column 30>
Low sensitivity

$$$$
Compound 258
Actelion Java MolfileCreator 2.0

  0  0  0  0  0  0              0 V3000
M  V30 BEGIN CTAB
M  V30 COUNTS 31 34 0 0 0
M  V30 BEGIN ATOM
M  V30 1 Cl 3.4641 1.4999 0.0 0
M  V30 2 C 4.3301 1.0 0.0 0
M  V30 3 C 4.3301 0.0 0.0 0
M  V30 4 C 5.1961 1.5 0.0 0
M  V30 5 O 3.4641 -0.5 0.0 0
M  V30 6 C 5.1961 -0.4999 0.0 0
M  V30 7 C 6.0621 1.0 0.0 0
M  V30 8 C 2.598 0.0 0.0 0
M  V30 9 C 6.0621 0.0 0.0 0
M  V30 10 Cl 6.9282 1.5 0.0 0
M  V30 11 C 1.732 -0.5 0.0 0 CFG=1
M  V30 12 O 1.732 -1.5 0.0 0
M  V30 13 C 0.866 0.0 0.0 0
M  V30 14 N 0.0 -0.5 0.0 0
M  V30 15 C -0.9135 -0.0932 0.0 0
M  V30 16 C -0.1045 -1.4945 0.0 0
M  V30 17 N -1.1214 0.8848 0.0 0
M  V30 18 N -1.5826 -0.8364 0.0 0
M  V30 19 C -1.0826 -1.7024 0.0 0
M  V30 20 C 0.5646 -2.2376 0.0 0
M  V30 21 C -2.5771 -0.7318 0.0 0
M  V30 22 C -1.3916 -2.6534 0.0 0
M  V30 23 C 0.2555 -3.1887 0.0 0
M  V30 24 C -2.9839 0.1816 0.0 0
M  V30 25 C -0.7225 -3.3966 0.0 0
M  V30 26 N -3.9784 0.2861 0.0 0
M  V30 27 C -4.3851 1.1997 0.0 0
M  V30 28 C -4.5662 -0.5228 0.0 0
M  V30 29 C -5.3797 1.3042 0.0 0
M  V30 30 C -5.5607 -0.4182 0.0 0
M  V30 31 C -5.9675 0.4952 0.0 0
M  V30 END ATOM
M  V30 BEGIN BOND
M  V30 1 1 1 2
M  V30 2 2 2 3
M  V30 3 1 2 4
M  V30 4 1 3 5
M  V30 5 1 3 6
M  V30 6 2 4 7
M  V30 7 1 5 8
M  V30 8 2 6 9
M  V30 9 1 7 10
M  V30 10 1 11 8
M  V30 11 1 11 12 CFG=1
M  V30 12 1 11 13
M  V30 13 1 13 14
M  V30 14 1 14 15
M  V30 15 1 14 16
M  V30 16 2 15 17
M  V30 17 1 15 18
M  V30 18 2 16 19
M  V30 19 1 16 20
M  V30 20 1 18 21
M  V30 21 1 19 22
M  V30 22 2 20 23
M  V30 23 1 21 24
M  V30 24 2 22 25
M  V30 25 1 24 26
M  V30 26 1 26 27
M  V30 27 1 26 28
M  V30 28 1 27 29
M  V30 29 1 28 30
M  V30 30 1 29 31
M  V30 31 1 7 9
M  V30 32 1 18 19
M  V30 33 1 23 25
M  V30 34 1 30 31
M  V30 END BOND
M  V30 BEGIN COLLECTION
M  V30 MDLV30/STERAC1 ATOMS=(1 11)
M  V30 END COLLECTION
M  V30 END CTAB
M  END
>  <Column 1>
257

>  <Column 2>
PandemicResponseBox - Plate D

>  <Column 3>
A04

>  <Column 4>
MMV394033

>  <Column 5>
10 mM

>  <Column 6>
ANTIVIRALS

>  <Column 7>


>  <Column 8>
None

>  <Column 9>


>  <Column 10>
ClC4=C(OCC(O)C[N]2[C](=N)[N](CCN1CCCCC1)C3=C2C=CC=C3)C=CC(=C4)Cl

>  <Column 11>
CHEMBL1185172

>  <Column 12>


>  <Column 13>
463.4

>  <Column 14>
C23H28Cl2N4O2

>  <Tox-Glu>
ATCTOX

>  <Column 15>


>  <Column 16>
1 

>  <Column 17>
1 

>  <Column 18>
0 

>  <Column 19>


>  <Tox-Gal>
CTOXGAL

>  <Column 20>


>  <Column 21>
1 

>  <Column 22>
1 

>  <Column 23>
0 

>  <Column 24>


>  <Column 25>


>  <PAMPA>
PAMPA

>  <Column 26>
6

>  <Column 27>


>  <Column 28>


>  <Mouse>
ATMETMOU

>  <Column 29>
55

>  <Column 30>


$$$$
Compound 259
Actelion Java MolfileCreator 2.0

  0  0  0  0  0  0              0 V3000
M  V30 BEGIN CTAB
M  V30 COUNTS 18 19 0 0 0
M  V30 BEGIN ATOM
M  V30 1 Cl 4.3301 -1.9999 0.0 0
M  V30 2 C 3.4641 -1.4999 0.0 0
M  V30 3 C 3.4641 -0.5 0.0 0
M  V30 4 C 2.598 -1.9999 0.0 0
M  V30 5 C 2.598 0.0 0.0 0
M  V30 6 C 1.732 -1.5 0.0 0
M  V30 7 C 1.732 -0.5 0.0 0
M  V30 8 O 0.866 0.0 0.0 0
M  V30 9 C 0.0 -0.5 0.0 0
M  V30 10 C -0.866 0.0 0.0 0
M  V30 11 C 0.0 -1.4999 0.0 0
M  V30 12 C -1.732 -0.4999 0.0 0
M  V30 13 C -0.866 -1.9999 0.0 0
M  V30 14 C -1.732 -1.4999 0.0 0
M  V30 15 S -2.598 -1.9999 0.0 0
M  V30 16 O -3.098 -1.1339 0.0 0
M  V30 17 O -2.098 -2.866 0.0 0
M  V30 18 C -3.4641 -2.4999 0.0 0
M  V30 END ATOM
M  V30 BEGIN BOND
M  V30 1 1 1 2
M  V30 2 2 2 3
M  V30 3 1 2 4
M  V30 4 1 3 5
M  V30 5 2 4 6
M  V30 6 2 5 7
M  V30 7 1 7 8
M  V30 8 1 8 9
M  V30 9 2 9 10
M  V30 10 1 9 11
M  V30 11 1 10 12
M  V30 12 2 11 13
M  V30 13 2 12 14
M  V30 14 1 14 15
M  V30 15 2 15 16
M  V30 16 2 15 17
M  V30 17 1 15 18
M  V30 18 1 6 7
M  V30 19 1 13 14
M  V30 END BOND
M  V30 END CTAB
M  END
>  <Column 1>
258

>  <Column 2>
PandemicResponseBox - Plate D

>  <Column 3>
B04

>  <Column 4>
MMV1634404

>  <Column 5>
10 mM

>  <Column 6>
ANTIVIRALS

>  <Column 7>


>  <Column 8>
None

>  <Column 9>


>  <Column 10>
ClC2=CC=C(OC1=CC=C([S](=O)(=O)C)C=C1)C=C2

>  <Column 11>
CHEMBL138993

>  <Column 12>


>  <Column 13>
282.7

>  <Column 14>
C13 H11 Cl O3 S

>  <Tox-Glu>
ATCTOX

>  <Column 15>


>  <Column 16>
97 

>  <Column 17>
98 

>  <Column 18>
77 

>  <Column 19>


>  <Tox-Gal>
CTOXGAL

>  <Column 20>


>  <Column 21>
102 

>  <Column 22>
91 

>  <Column 23>
1 

>  <Column 24>


>  <Column 25>


>  <PAMPA>
PAMPA

>  <Column 26>
undetected

>  <Column 27>
low sensitivity

>  <Column 28>


>  <Mouse>
ATMETMOU

>  <Column 29>


>  <Column 30>
Not determined; Low sensitivity

$$$$
Compound 260
Actelion Java MolfileCreator 2.0

  0  0  0  0  0  0              0 V3000
M  V30 BEGIN CTAB
M  V30 COUNTS 27 29 0 0 0
M  V30 BEGIN ATOM
M  V30 1 S 3.3554 -4.5683 0.0 0
M  V30 2 C 3.82 -3.1386 0.0 0
M  V30 3 C 1.8521 -4.5683 0.0 0
M  V30 4 C 2.6038 -2.2549 0.0 0
M  V30 5 C 5.2497 -2.674 0.0 0
M  V30 6 C 0.9685 -5.7845 0.0 0
M  V30 7 C 1.3876 -3.1386 0.0 0
M  V30 8 N 2.6038 -0.7516 0.0 0
M  V30 9 O 6.3669 -3.6799 0.0 0
M  V30 10 O 5.617 -1.2732 0.0 0
M  V30 11 C -0.5265 -5.6274 0.0 0
M  V30 12 C 1.5799 -7.1579 0.0 0
M  V30 13 C 3.9057 0.0 0.0 0
M  V30 14 C 1.3019 0.0 0.0 0
M  V30 15 C -1.4101 -6.8436 0.0 0
M  V30 16 C 0.6963 -8.3741 0.0 0
M  V30 17 O 5.1802 -0.7168 0.0 0
M  V30 18 C 3.9057 1.5033 0.0 0 CFG=1
M  V30 19 C 1.3019 1.5033 0.0 0
M  V30 20 C 0.0 -0.7516 0.0 0
M  V30 21 C -0.7987 -8.2169 0.0 0
M  V30 22 C 5.2076 2.2549 0.0 0
M  V30 23 C 2.6038 2.2549 0.0 0
M  V30 24 C 5.2076 3.7582 0.0 0
M  V30 25 C 2.6038 3.7582 0.0 0
M  V30 26 C 3.9057 4.5099 0.0 0 CFG=1
M  V30 27 C 3.9057 6.0132 0.0 0
M  V30 END ATOM
M  V30 BEGIN BOND
M  V30 1 1 1 2
M  V30 2 1 1 3
M  V30 3 2 2 4
M  V30 4 1 2 5
M  V30 5 1 3 6
M  V30 6 2 3 7
M  V30 7 1 4 8
M  V30 8 2 5 9
M  V30 9 1 5 10
M  V30 10 2 6 11
M  V30 11 1 6 12
M  V30 12 1 8 13
M  V30 13 1 8 14
M  V30 14 1 11 15
M  V30 15 2 12 16
M  V30 16 2 13 17
M  V30 17 1 18 13 CFG=3
M  V30 18 1 14 19
M  V30 19 1 14 20
M  V30 20 2 15 21
M  V30 21 1 18 22
M  V30 22 1 18 23
M  V30 23 1 22 24
M  V30 24 1 23 25
M  V30 25 1 26 24
M  V30 26 1 26 27 CFG=1
M  V30 27 1 4 7
M  V30 28 1 16 21
M  V30 29 1 25 26
M  V30 END BOND
M  V30 BEGIN COLLECTION
M  V30 MDLV30/STEABS ATOMS=(2 18 26)
M  V30 END COLLECTION
M  V30 END CTAB
M  END
>  <Column 1>
259

>  <Column 2>
PandemicResponseBox - Plate D

>  <Column 3>
C04

>  <Column 4>
MMV1634388

>  <Column 5>
10 mM

>  <Column 6>
ANTIVIRALS

>  <Column 7>


>  <Column 8>
None

>  <Column 9>


>  <Column 10>
S2C(=C(N(C(=O)[C@H]1CC[C@H](C)CC1)C(C)C)C=C2C3=CC=CC=C3)C(=O)O

>  <Column 11>
CHEMBL352911

>  <Column 12>


>  <Column 13>
385.5

>  <Column 14>
C22 H27 N O3 S

>  <Tox-Glu>
ATCTOX

>  <Column 15>


>  <Column 16>
102 

>  <Column 17>
103 

>  <Column 18>
81 

>  <Column 19>


>  <Tox-Gal>
CTOXGAL

>  <Column 20>


>  <Column 21>
102 

>  <Column 22>
105 

>  <Column 23>
63 

>  <Column 24>


>  <Column 25>


>  <PAMPA>
PAMPA

>  <Column 26>
183

>  <Column 27>


>  <Column 28>


>  <Mouse>
ATMETMOU

>  <Column 29>
2

>  <Column 30>
Large variations

$$$$
Compound 261
Actelion Java MolfileCreator 2.0

  0  0  0  0  0  0              0 V3000
M  V30 BEGIN CTAB
M  V30 COUNTS 11 13 0 0 0
M  V30 BEGIN ATOM
M  V30 1 N -1.5974 -0.3231 0.0 0
M  V30 2 C -0.6371 -0.7664 0.0 0
M  V30 3 C -0.0326 0.0023 0.0 0
M  V30 4 C 0.2515 -0.504 0.0 0
M  V30 5 C -0.0424 1.0625 0.0 0
M  V30 6 C 1.0669 -0.3143 0.0 0
M  V30 7 C 0.3548 0.7451 0.0 0
M  V30 8 C 1.2211 -0.7824 0.0 0
M  V30 9 C 0.8126 1.3943 0.0 0
M  V30 10 C 1.8006 -0.0184 0.0 0
M  V30 11 C 1.8098 1.0619 0.0 0
M  V30 END ATOM
M  V30 BEGIN BOND
M  V30 1 1 1 2
M  V30 2 1 2 3
M  V30 3 1 2 4
M  V30 4 1 3 5
M  V30 5 1 3 6
M  V30 6 1 4 7
M  V30 7 1 4 8
M  V30 8 1 5 9
M  V30 9 1 6 10
M  V30 10 1 9 11
M  V30 11 1 7 9
M  V30 12 1 8 10
M  V30 13 1 10 11
M  V30 END BOND
M  V30 END CTAB
M  END
>  <Column 1>
260

>  <Column 2>
PandemicResponseBox - Plate D

>  <Column 3>
D04

>  <Column 4>
MMV180402

>  <Column 5>
10 mM

>  <Column 6>
ANTIVIRALS

>  <Column 7>
1

>  <Column 8>
Hydrochloric acid

>  <Column 9>
2-Adamantanamine

>  <Column 10>
NC2C1CC3CC(C1)CC2C3

>  <Column 11>
CHEMBL1170792

>  <Column 12>
J. Med. Chem. (2014) 57:4629-4639

>  <Column 13>
187.7

>  <Column 14>
C10H17N

>  <Tox-Glu>
ATCTOX

>  <Column 15>


>  <Column 16>
97 

>  <Column 17>
98 

>  <Column 18>
91 

>  <Column 19>


>  <Tox-Gal>
CTOXGAL

>  <Column 20>


>  <Column 21>
101 

>  <Column 22>
102 

>  <Column 23>
101 

>  <Column 24>


>  <Column 25>


>  <PAMPA>
PAMPA

>  <Column 26>
453

>  <Column 27>


>  <Column 28>


>  <Mouse>
ATMETMOU

>  <Column 29>
-19

>  <Column 30>


$$$$
Compound 262
Actelion Java MolfileCreator 2.0

  0  0  0  0  0  0              0 V3000
M  V30 BEGIN CTAB
M  V30 COUNTS 25 28 0 0 0
M  V30 BEGIN ATOM
M  V30 1 S 2.7026 0.9945 0.0 0
M  V30 2 C 2.598 0.0 0.0 0
M  V30 3 C 3.6807 1.2024 0.0 0
M  V30 4 N 3.5116 -0.4067 0.0 0
M  V30 5 N 1.732 -0.5 0.0 0
M  V30 6 C 4.1807 0.3364 0.0 0
M  V30 7 C 0.866 0.0 0.0 0 CFG=2
M  V30 8 C 0.866 1.0 0.0 0
M  V30 9 C 0.0 -0.5 0.0 0
M  V30 10 C 0.0 1.4999 0.0 0
M  V30 11 C 1.732 1.5 0.0 0
M  V30 12 C -0.866 0.0 0.0 0
M  V30 13 C 0.0 -1.4999 0.0 0
M  V30 14 O -0.866 0.9999 0.0 0
M  V30 15 C 0.0 2.4999 0.0 0
M  V30 16 C 1.732 2.5 0.0 0
M  V30 17 C -1.732 -0.4999 0.0 0
M  V30 18 C -0.866 -1.9999 0.0 0
M  V30 19 N -0.866 2.9999 0.0 0
M  V30 20 C 0.866 3.0 0.0 0
M  V30 21 O -2.598 0.0 0.0 0
M  V30 22 C -1.732 -1.4999 0.0 0
M  V30 23 C -0.866 3.9999 0.0 0
M  V30 24 C 0.866 3.9999 0.0 0
M  V30 25 C 0.0 4.4999 0.0 0
M  V30 END ATOM
M  V30 BEGIN BOND
M  V30 1 1 1 2
M  V30 2 1 1 3
M  V30 3 2 2 4
M  V30 4 1 2 5
M  V30 5 2 3 6
M  V30 6 1 7 5 CFG=1
M  V30 7 1 7 8
M  V30 8 1 7 9
M  V30 9 2 8 10
M  V30 10 1 8 11
M  V30 11 2 9 12
M  V30 12 1 9 13
M  V30 13 1 10 14
M  V30 14 1 10 15
M  V30 15 2 11 16
M  V30 16 1 12 17
M  V30 17 2 13 18
M  V30 18 2 15 19
M  V30 19 1 15 20
M  V30 20 1 17 21
M  V30 21 2 17 22
M  V30 22 1 19 23
M  V30 23 2 20 24
M  V30 24 2 23 25
M  V30 25 1 4 6
M  V30 26 1 16 20
M  V30 27 1 18 22
M  V30 28 1 24 25
M  V30 END BOND
M  V30 BEGIN COLLECTION
M  V30 MDLV30/STERAC1 ATOMS=(1 7)
M  V30 END COLLECTION
M  V30 END CTAB
M  END
>  <Column 1>
261

>  <Column 2>
PandemicResponseBox - Plate D

>  <Column 3>
E04

>  <Column 4>
MMV642550

>  <Column 5>
10 mM

>  <Column 6>
ANTIVIRALS

>  <Column 7>


>  <Column 8>
None

>  <Column 9>


>  <Column 10>
S1C(=NC=C1)NC(C3=C(O)C2=NC=CC=C2C=C3)C4=CC(=CC=C4)O

>  <Column 11>
CHEMBL1426340

>  <Column 12>
Antiviral Research (2013), 97(1), 74-80,Journal of Medicinal Chemistry (2013), 56(6), 2311-2322

>  <Column 13>
349.4

>  <Column 14>
C19H15N3O2S

>  <Tox-Glu>
ATCTOX

>  <Column 15>


>  <Column 16>
56 

>  <Column 17>
50 

>  <Column 18>
13 

>  <Column 19>


>  <Tox-Gal>
CTOXGAL

>  <Column 20>


>  <Column 21>
65 

>  <Column 22>
40 

>  <Column 23>
1 

>  <Column 24>


>  <Column 25>


>  <PAMPA>
PAMPA

>  <Column 26>
164

>  <Column 27>


>  <Column 28>


>  <Mouse>
ATMETMOU

>  <Column 29>
340

>  <Column 30>


$$$$
Compound 263
Actelion Java MolfileCreator 2.0

  0  0  0  0  0  0              0 V3000
M  V30 BEGIN CTAB
M  V30 COUNTS 32 35 0 0 0
M  V30 BEGIN ATOM
M  V30 1 O 4.3301 0.9999 0.0 0
M  V30 2 C 4.3301 0.0 0.0 0
M  V30 3 N 5.1961 -0.5 0.0 0
M  V30 4 C 3.4641 -0.5 0.0 0 CFG=1
M  V30 5 C 6.0621 0.0 0.0 0
M  V30 6 C 5.1961 -1.4999 0.0 0
M  V30 7 N 2.598 0.0 0.0 0
M  V30 8 C 3.4641 -1.5 0.0 0
M  V30 9 C 6.9282 -0.5 0.0 0
M  V30 10 C 6.0621 0.9999 0.0 0
M  V30 11 C 2.598 0.9999 0.0 0
M  V30 12 C 2.598 -2.0 0.0 0
M  V30 13 C 7.7942 0.0 0.0 0
M  V30 14 C 6.9282 1.4999 0.0 0
M  V30 15 O 3.4641 1.4999 0.0 0
M  V30 16 C 1.732 1.4999 0.0 0
M  V30 17 C 2.598 -3.0 0.0 0
M  V30 18 C 1.732 -1.5 0.0 0
M  V30 19 C 7.7942 0.9999 0.0 0
M  V30 20 C 1.732 2.4999 0.0 0
M  V30 21 C 1.732 -3.5 0.0 0
M  V30 22 C 0.866 -1.9999 0.0 0
M  V30 23 C 0.923 3.0877 0.0 0
M  V30 24 C 2.541 3.0877 0.0 0
M  V30 25 C 0.866 -3.0 0.0 0
M  V30 26 C 1.232 4.0388 0.0 0
M  V30 27 C -0.0551 2.8798 0.0 0
M  V30 28 N 2.232 4.0388 0.0 0
M  V30 29 C 3.4921 2.7787 0.0 0
M  V30 30 C 0.5629 4.7819 0.0 0
M  V30 31 C -0.7242 3.623 0.0 0
M  V30 32 C -0.4152 4.574 0.0 0
M  V30 END ATOM
M  V30 BEGIN BOND
M  V30 1 2 1 2
M  V30 2 1 2 3
M  V30 3 1 4 2
M  V30 4 1 3 5
M  V30 5 1 3 6
M  V30 6 1 4 7 CFG=3
M  V30 7 1 4 8
M  V30 8 2 5 9
M  V30 9 1 5 10
M  V30 10 1 7 11
M  V30 11 1 8 12
M  V30 12 1 9 13
M  V30 13 2 10 14
M  V30 14 2 11 15
M  V30 15 1 11 16
M  V30 16 2 12 17
M  V30 17 1 12 18
M  V30 18 2 13 19
M  V30 19 1 16 20
M  V30 20 1 17 21
M  V30 21 2 18 22
M  V30 22 1 20 23
M  V30 23 2 20 24
M  V30 24 2 21 25
M  V30 25 2 23 26
M  V30 26 1 23 27
M  V30 27 1 24 28
M  V30 28 1 24 29
M  V30 29 1 26 30
M  V30 30 2 27 31
M  V30 31 2 30 32
M  V30 32 1 14 19
M  V30 33 1 22 25
M  V30 34 1 26 28
M  V30 35 1 31 32
M  V30 END BOND
M  V30 BEGIN COLLECTION
M  V30 MDLV30/STEABS ATOMS=(1 4)
M  V30 END COLLECTION
M  V30 END CTAB
M  END
>  <Column 1>
262

>  <Column 2>
PandemicResponseBox - Plate D

>  <Column 3>
F04

>  <Column 4>
MMV1580798

>  <Column 5>
10 mM

>  <Column 6>
ANTIVIRALS

>  <Column 7>


>  <Column 8>
None

>  <Column 9>
PF-3450074

>  <Column 10>
O=C(N(C1=CC=CC=C1)C)[C@@H](NC(=O)CC2=C([NH]C3=C2C=CC=C3)C)CC4=CC=CC=C4

>  <Column 11>
CHEMBL1229713

>  <Column 12>


>  <Column 13>
425.5

>  <Column 14>
C27 H27 N3 O2

>  <Tox-Glu>
ATCTOX

>  <Column 15>


>  <Column 16>
101 

>  <Column 17>
96 

>  <Column 18>
6 

>  <Column 19>


>  <Tox-Gal>
CTOXGAL

>  <Column 20>


>  <Column 21>
98 

>  <Column 22>
96 

>  <Column 23>
0 

>  <Column 24>


>  <Column 25>


>  <PAMPA>
PAMPA

>  <Column 26>
318

>  <Column 27>


>  <Column 28>


>  <Mouse>
ATMETMOU

>  <Column 29>
>768

>  <Column 30>


$$$$
Compound 264
Actelion Java MolfileCreator 2.0

  0  0  0  0  0  0              0 V3000
M  V30 BEGIN CTAB
M  V30 COUNTS 19 20 0 0 0
M  V30 BEGIN ATOM
M  V30 1 Cl 2.598 1.0 0.0 0
M  V30 2 C 2.598 0.0 0.0 0
M  V30 3 C 1.732 -0.5 0.0 0
M  V30 4 C 3.4641 -0.4999 0.0 0
M  V30 5 O 0.866 0.0 0.0 0
M  V30 6 C 1.732 -1.5 0.0 0
M  V30 7 C 3.4641 -1.4999 0.0 0
M  V30 8 C 0.0 -0.5 0.0 0
M  V30 9 C 2.598 -1.9999 0.0 0
M  V30 10 C -0.866 0.0 0.0 0
M  V30 11 C 0.0 -1.4999 0.0 0
M  V30 12 C -0.866 1.0 0.0 0
M  V30 13 C -1.732 -0.4999 0.0 0
M  V30 14 C -0.866 -1.9999 0.0 0
M  V30 15 N -0.866 2.0 0.0 0
M  V30 16 C -1.732 -1.4999 0.0 0
M  V30 17 N -2.598 -1.9999 0.0 0 CHG=1 VAL=5
M  V30 18 O -3.4641 -1.4999 0.0 0
M  V30 19 O -2.598 -2.9999 0.0 0 CHG=-1
M  V30 END ATOM
M  V30 BEGIN BOND
M  V30 1 1 1 2
M  V30 2 2 2 3
M  V30 3 1 2 4
M  V30 4 1 3 5
M  V30 5 1 3 6
M  V30 6 2 4 7
M  V30 7 1 5 8
M  V30 8 2 6 9
M  V30 9 2 8 10
M  V30 10 1 8 11
M  V30 11 1 10 12
M  V30 12 1 10 13
M  V30 13 2 11 14
M  V30 14 3 12 15
M  V30 15 2 13 16
M  V30 16 1 16 17
M  V30 17 2 17 18
M  V30 18 1 17 19
M  V30 19 1 7 9
M  V30 20 1 14 16
M  V30 END BOND
M  V30 END CTAB
M  END
>  <Column 1>
263

>  <Column 2>
PandemicResponseBox - Plate D

>  <Column 3>
G04

>  <Column 4>
MMV1580800

>  <Column 5>
10 mM

>  <Column 6>
ANTIVIRALS

>  <Column 7>


>  <Column 8>
None

>  <Column 9>


>  <Column 10>
ClC2=C(OC1=C(C#N)C=C([N](=O)=O)C=C1)C=CC=C2

>  <Column 11>
CHEMBL137710

>  <Column 12>


>  <Column 13>
274.7

>  <Column 14>
C13 H7 Cl N2 O3

>  <Tox-Glu>
ATCTOX

>  <Column 15>


>  <Column 16>
97 

>  <Column 17>
91 

>  <Column 18>
47 

>  <Column 19>


>  <Tox-Gal>
CTOXGAL

>  <Column 20>


>  <Column 21>
96 

>  <Column 22>
79 

>  <Column 23>
0 

>  <Column 24>


>  <Column 25>


>  <PAMPA>
PAMPA

>  <Column 26>
undetected

>  <Column 27>
low sensitivity

>  <Column 28>


>  <Mouse>
ATMETMOU

>  <Column 29>


>  <Column 30>
Not determined; Low sensitivity

$$$$
Compound 265
Actelion Java MolfileCreator 2.0

  0  0  0  0  0  0              0 V3000
M  V30 BEGIN CTAB
M  V30 COUNTS 35 39 0 0 0
M  V30 BEGIN ATOM
M  V30 1 O 5.1492 3.1676 0.0 0
M  V30 2 C 6.2487 4.1879 0.0 0
M  V30 3 C 7.6821 3.7458 0.0 0
M  V30 4 C 5.9149 5.6503 0.0 0
M  V30 5 C 8.7817 4.766 0.0 0
M  V30 6 C 7.7942 2.25 0.0 0 CFG=1
M  V30 7 C 7.0145 6.6705 0.0 0
M  V30 8 N 10.2649 4.5425 0.0 0
M  V30 9 C 8.4479 6.2284 0.0 0
M  V30 10 N 9.0335 1.405 0.0 0
M  V30 11 C 6.4951 1.5 0.0 0
M  V30 12 C 7.4567 8.1039 0.0 0
M  V30 13 C 5.9943 7.7701 0.0 0
M  V30 14 C 11.0149 3.2434 0.0 0
M  V30 15 C 10.4669 1.8471 0.0 0
M  V30 16 C 8.81 -0.0782 0.0 0
M  V30 17 C 5.1961 2.25 0.0 0
M  V30 18 C 6.4951 0.0 0.0 0
M  V30 19 C 12.4982 3.467 0.0 0
M  V30 20 C 11.4021 0.6744 0.0 0
M  V30 21 O 7.4137 -0.6262 0.0 0
M  V30 22 C 9.9827 -1.0134 0.0 0
M  V30 23 C 3.8971 1.5 0.0 0
M  V30 24 C 5.1961 -0.75 0.0 0
M  V30 25 C 13.4334 2.2942 0.0 0
M  V30 26 C 12.8854 0.8979 0.0 0
M  V30 27 C 3.8971 0.0 0.0 0
M  V30 28 O 2.598 -0.75 0.0 0
M  V30 29 C 1.299 0.0 0.0 0
M  V30 30 C 0.0 -0.75 0.0 0
M  V30 31 C -1.299 0.0 0.0 0
M  V30 32 C 0.0 -2.25 0.0 0
M  V30 33 C -2.598 -0.75 0.0 0
M  V30 34 C -1.299 -3.0 0.0 0
M  V30 35 C -2.598 -2.25 0.0 0
M  V30 END ATOM
M  V30 BEGIN BOND
M  V30 1 2 1 2
M  V30 2 1 2 3
M  V30 3 1 2 4
M  V30 4 2 3 5
M  V30 5 1 6 3
M  V30 6 1 4 7
M  V30 7 1 5 8
M  V30 8 1 5 9
M  V30 9 1 6 10
M  V30 10 1 6 11 CFG=1
M  V30 11 1 7 12
M  V30 12 1 7 13
M  V30 13 1 8 14
M  V30 14 1 10 15
M  V30 15 1 10 16
M  V30 16 2 11 17
M  V30 17 1 11 18
M  V30 18 1 14 19
M  V30 19 1 15 20
M  V30 20 2 16 21
M  V30 21 1 16 22
M  V30 22 1 17 23
M  V30 23 2 18 24
M  V30 24 2 19 25
M  V30 25 2 20 26
M  V30 26 2 23 27
M  V30 27 1 27 28
M  V30 28 1 28 29
M  V30 29 1 29 30
M  V30 30 2 30 31
M  V30 31 1 30 32
M  V30 32 1 31 33
M  V30 33 2 32 34
M  V30 34 2 33 35
M  V30 35 1 7 9
M  V30 36 2 14 15
M  V30 37 1 24 27
M  V30 38 1 25 26
M  V30 39 1 34 35
M  V30 END BOND
M  V30 BEGIN COLLECTION
M  V30 MDLV30/STERAC1 ATOMS=(1 6)
M  V30 END COLLECTION
M  V30 END CTAB
M  END
>  <Column 1>
264

>  <Column 2>
PandemicResponseBox - Plate D

>  <Column 3>
H04

>  <Column 4>
MMV1580503

>  <Column 5>
10 mM

>  <Column 6>
ANTIVIRALS

>  <Column 7>


>  <Column 8>
None

>  <Column 9>


>  <Column 10>
O=C5C1=C(NC4=C(N(C1C3=CC=C(OCC2=CC=CC=C2)C=C3)C(=O)C)C=CC=C4)CC(C5)(C)C

>  <Column 11>
CHEMBL1673157

>  <Column 12>


>  <Column 13>
466.6

>  <Column 14>
C30 H30 N2 O3

>  <Tox-Glu>
ATCTOX

>  <Column 15>


>  <Column 16>
101 

>  <Column 17>
85 

>  <Column 18>
75 

>  <Column 19>


>  <Tox-Gal>
CTOXGAL

>  <Column 20>


>  <Column 21>
100 

>  <Column 22>
22 

>  <Column 23>
2 

>  <Column 24>


>  <Column 25>


>  <PAMPA>
PAMPA

>  <Column 26>
326

>  <Column 27>


>  <Column 28>


>  <Mouse>
ATMETMOU

>  <Column 29>
459

>  <Column 30>


$$$$
Compound 266
Actelion Java MolfileCreator 2.0

  0  0  0  0  0  0              0 V3000
M  V30 BEGIN CTAB
M  V30 COUNTS 23 25 0 0 0
M  V30 BEGIN ATOM
M  V30 1 O 1.732 -0.5 0.0 0
M  V30 2 C 2.598 0.0 0.0 0
M  V30 3 C 0.866 0.0 0.0 0
M  V30 4 C 3.4641 -0.5 0.0 0
M  V30 5 C 0.0 -0.5 0.0 0
M  V30 6 N 3.5686 -1.4945 0.0 0
M  V30 7 N 4.3776 -0.0932 0.0 0
M  V30 8 C 4.5467 -1.7024 0.0 0
M  V30 9 C 5.0467 -0.8364 0.0 0
M  V30 10 C 4.5855 0.8848 0.0 0
M  V30 11 C 5.0467 -2.5684 0.0 0
M  V30 12 C 6.0467 -0.8364 0.0 0
M  V30 13 C 3.8424 1.554 0.0 0
M  V30 14 N 6.0467 -2.5684 0.0 0
M  V30 15 N 4.5467 -3.4344 0.0 0
M  V30 16 C 6.5467 -1.7024 0.0 0
M  V30 17 C 6.5467 0.0296 0.0 0
M  V30 18 O 3.1732 0.8108 0.0 0
M  V30 19 C 3.0992 2.2231 0.0 0
M  V30 20 C 4.5115 2.2971 0.0 0
M  V30 21 C 7.5467 -1.7024 0.0 0
M  V30 22 C 7.5467 0.0296 0.0 0
M  V30 23 C 8.0467 -0.8364 0.0 0
M  V30 END ATOM
M  V30 BEGIN BOND
M  V30 1 1 1 2
M  V30 2 1 1 3
M  V30 3 1 2 4
M  V30 4 1 3 5
M  V30 5 2 4 6
M  V30 6 1 4 7
M  V30 7 1 6 8
M  V30 8 1 7 9
M  V30 9 1 7 10
M  V30 10 1 8 11
M  V30 11 1 9 12
M  V30 12 1 10 13
M  V30 13 2 11 14
M  V30 14 1 11 15
M  V30 15 1 12 16
M  V30 16 2 12 17
M  V30 17 1 13 18
M  V30 18 1 13 19
M  V30 19 1 13 20
M  V30 20 2 16 21
M  V30 21 1 17 22
M  V30 22 1 21 23
M  V30 23 2 8 9
M  V30 24 1 14 16
M  V30 25 2 22 23
M  V30 END BOND
M  V30 END CTAB
M  END
>  <Column 1>
265

>  <Column 2>
PandemicResponseBox - Plate D

>  <Column 3>
A05

>  <Column 4>
MMV690547

>  <Column 5>
10 mM

>  <Column 6>
ANTIVIRALS

>  <Column 7>


>  <Column 8>
None

>  <Column 9>
Resiquimod

>  <Column 10>
O(CC1=NC3=C([N]1CC(O)(C)C)C2=CC=CC=C2N=C3N)CC

>  <Column 11>
CHEMBL383322

>  <Column 12>
Antimicrob. Agents Chemother. (2007) 51:2969-2978

>  <Column 13>
314.4

>  <Column 14>
C17 H22 N4 O2

>  <Tox-Glu>
ATCTOX

>  <Column 15>


>  <Column 16>
100 

>  <Column 17>
98 

>  <Column 18>
90 

>  <Column 19>


>  <Tox-Gal>
CTOXGAL

>  <Column 20>


>  <Column 21>
96 

>  <Column 22>
94 

>  <Column 23>
92 

>  <Column 24>


>  <Column 25>


>  <PAMPA>
PAMPA

>  <Column 26>
364

>  <Column 27>


>  <Column 28>


>  <Mouse>
ATMETMOU

>  <Column 29>
-19

>  <Column 30>


$$$$
Compound 267
Actelion Java MolfileCreator 2.0

  0  0  0  0  0  0              0 V3000
M  V30 BEGIN CTAB
M  V30 COUNTS 28 32 0 0 0
M  V30 BEGIN ATOM
M  V30 1 F 4.3301 -1.9999 0.0 0
M  V30 2 C 3.4641 -1.4999 0.0 0
M  V30 3 C 3.4641 -0.5 0.0 0
M  V30 4 C 2.598 -1.9999 0.0 0
M  V30 5 C 2.598 0.0 0.0 0
M  V30 6 C 1.732 -1.5 0.0 0
M  V30 7 C 1.732 -0.5 0.0 0
M  V30 8 C 0.8675 -0.0032 0.0 0
M  V30 9 O 0.7824 1.0752 0.0 0
M  V30 10 N 0.0 -0.5 0.0 0
M  V30 11 C -0.9135 -0.0932 0.0 0 CFG=1
M  V30 12 C -0.1045 -1.4945 0.0 0
M  V30 13 N -1.5826 -0.8364 0.0 0
M  V30 14 C -0.2444 0.6498 0.0 0
M  V30 15 C -1.4135 0.7727 0.0 0
M  V30 16 C -1.0826 -1.7024 0.0 0
M  V30 17 C -2.4962 -0.4296 0.0 0
M  V30 18 C 0.6631 0.4491 0.0 0
M  V30 19 C -0.5534 1.6009 0.0 0
M  V30 20 C -2.3916 0.5648 0.0 0
M  V30 21 C -1.1045 1.7238 0.0 0
M  V30 22 O -3.3622 -0.9296 0.0 0
M  V30 23 C 1.4028 1.1851 0.0 0
M  V30 24 C 0.1156 2.344 0.0 0
M  V30 25 C -3.0608 1.3079 0.0 0
M  V30 26 C -1.7736 2.4669 0.0 0
M  V30 27 C 1.0938 2.1361 0.0 0
M  V30 28 C -2.7518 2.259 0.0 0
M  V30 END ATOM
M  V30 BEGIN BOND
M  V30 1 1 1 2
M  V30 2 2 2 3
M  V30 3 1 2 4
M  V30 4 1 3 5
M  V30 5 2 4 6
M  V30 6 2 5 7
M  V30 7 1 7 8
M  V30 8 2 8 9
M  V30 9 1 8 10
M  V30 10 1 11 10
M  V30 11 1 10 12
M  V30 12 1 11 13
M  V30 13 1 11 14 CFG=1
M  V30 14 1 11 15
M  V30 15 1 12 16
M  V30 16 1 13 17
M  V30 17 2 14 18
M  V30 18 1 14 19
M  V30 19 2 15 20
M  V30 20 1 15 21
M  V30 21 2 17 22
M  V30 22 1 18 23
M  V30 23 2 19 24
M  V30 24 1 20 25
M  V30 25 2 21 26
M  V30 26 2 23 27
M  V30 27 2 25 28
M  V30 28 1 6 7
M  V30 29 1 13 16
M  V30 30 1 17 20
M  V30 31 1 24 27
M  V30 32 1 26 28
M  V30 END BOND
M  V30 BEGIN COLLECTION
M  V30 MDLV30/STERAC1 ATOMS=(1 11)
M  V30 END COLLECTION
M  V30 END CTAB
M  END
>  <Column 1>
266

>  <Column 2>
PandemicResponseBox - Plate D

>  <Column 3>
B05

>  <Column 4>
MMV1165877

>  <Column 5>
10 mM

>  <Column 6>
ANTIVIRALS

>  <Column 7>


>  <Column 8>
None

>  <Column 9>


>  <Column 10>
FC5=CC=C(C(=O)N3C1(N(C(=O)C2=C1C=CC=C2)CC3)C4=CC=CC=C4)C=C5

>  <Column 11>
CHEMBL1459098

>  <Column 12>
 Bioorganic & Medicinal Chemistry Letters (2015), 25(4), 969-975

>  <Column 13>
372.4

>  <Column 14>
C23H17FN2O2

>  <Tox-Glu>
ATCTOX

>  <Column 15>


>  <Column 16>
100 

>  <Column 17>
103 

>  <Column 18>
93 

>  <Column 19>


>  <Tox-Gal>
CTOXGAL

>  <Column 20>


>  <Column 21>
97 

>  <Column 22>
100 

>  <Column 23>
93 

>  <Column 24>


>  <Column 25>


>  <PAMPA>
PAMPA

>  <Column 26>
234

>  <Column 27>


>  <Column 28>


>  <Mouse>
ATMETMOU

>  <Column 29>
65

>  <Column 30>


$$$$
Compound 268
Actelion Java MolfileCreator 2.0

  0  0  0  0  0  0              0 V3000
M  V30 BEGIN CTAB
M  V30 COUNTS 37 39 0 0 0
M  V30 BEGIN ATOM
M  V30 1 O 3.8971 0.0 0.0 0
M  V30 2 C 3.8971 1.5 0.0 0
M  V30 3 N 5.1961 2.25 0.0 0
M  V30 4 N 2.598 2.25 0.0 0
M  V30 5 C 6.4951 1.5 0.0 0
M  V30 6 C 1.299 1.5 0.0 0 CFG=2
M  V30 7 C 7.2451 2.799 0.0 0
M  V30 8 C 7.7942 0.75 0.0 0
M  V30 9 C 5.7451 0.2009 0.0 0
M  V30 10 C 1.299 0.0 0.0 0
M  V30 11 C 0.0 2.25 0.0 0
M  V30 12 O 2.598 -0.75 0.0 0
M  V30 13 N 0.0 -0.75 0.0 0
M  V30 14 C 0.75 3.549 0.0 0
M  V30 15 C -1.299 3.0 0.0 0
M  V30 16 C -0.75 0.9509 0.0 0
M  V30 17 C -0.1567 -2.2417 0.0 0 CFG=2
M  V30 18 C -1.3703 -0.1398 0.0 0
M  V30 19 C 0.9579 -3.2454 0.0 0
M  V30 20 C -1.624 -2.5536 0.0 0 CFG=2
M  V30 21 C -2.374 -1.2546 0.0 0 CFG=1
M  V30 22 O 2.3845 -2.7819 0.0 0
M  V30 23 N 0.646 -4.7127 0.0 0
M  V30 24 C -3.124 -2.5536 0.0 0
M  V30 25 C 1.7607 -5.7164 0.0 0
M  V30 26 C -4.6239 -2.5536 0.0 0
M  V30 27 C -3.8739 -3.8526 0.0 0
M  V30 28 C 3.1873 -5.2528 0.0 0
M  V30 29 C 1.4489 -7.1836 0.0 0
M  V30 30 O 3.4992 -3.7856 0.0 0
M  V30 31 C 4.302 -6.2565 0.0 0
M  V30 32 C 0.0223 -7.6471 0.0 0
M  V30 33 O 3.9902 -7.7237 0.0 0
M  V30 34 N 5.7286 -5.793 0.0 0
M  V30 35 C -0.6586 -8.9836 0.0 0
M  V30 36 C -1.3141 -6.9661 0.0 0
M  V30 37 C -1.9951 -8.3026 0.0 0
M  V30 END ATOM
M  V30 BEGIN BOND
M  V30 1 2 1 2
M  V30 2 1 2 3
M  V30 3 1 2 4
M  V30 4 1 3 5
M  V30 5 1 6 4 CFG=3
M  V30 6 1 5 7
M  V30 7 1 5 8
M  V30 8 1 5 9
M  V30 9 1 6 10
M  V30 10 1 6 11
M  V30 11 2 10 12
M  V30 12 1 10 13
M  V30 13 1 11 14
M  V30 14 1 11 15
M  V30 15 1 11 16
M  V30 16 1 17 13
M  V30 17 1 13 18
M  V30 18 1 17 19 CFG=3
M  V30 19 1 20 17
M  V30 20 1 21 18 CFG=1
M  V30 21 2 19 22
M  V30 22 1 19 23
M  V30 23 1 20 24 CFG=1
M  V30 24 1 23 25
M  V30 25 1 24 26
M  V30 26 1 24 27
M  V30 27 1 25 28
M  V30 28 1 25 29
M  V30 29 2 28 30
M  V30 30 1 28 31
M  V30 31 1 29 32
M  V30 32 2 31 33
M  V30 33 1 31 34
M  V30 34 1 32 35
M  V30 35 1 32 36
M  V30 36 1 35 37
M  V30 37 1 20 21
M  V30 38 1 21 24
M  V30 39 1 36 37
M  V30 END BOND
M  V30 BEGIN COLLECTION
M  V30 MDLV30/STEABS ATOMS=(4 6 17 20 21)
M  V30 END COLLECTION
M  V30 END CTAB
M  END
>  <Column 1>
267

>  <Column 2>
PandemicResponseBox - Plate D

>  <Column 3>
C05

>  <Column 4>
MMV1580497

>  <Column 5>
10 mM

>  <Column 6>
ANTIVIRALS

>  <Column 7>


>  <Column 8>
None

>  <Column 9>
Boceprevir

>  <Column 10>
O=C(NC(C)(C)C)N[C@H](C(=O)N3[C@H](C(=O)NC(C(=O)C(=O)N)CC1CCC1)[C@H]2C(C)(C)[C@H]2C3)C(C)(C)C

>  <Column 11>
CHEMBL218394

>  <Column 12>


>  <Column 13>
519.7

>  <Column 14>
C27 H45 N5 O5

>  <Tox-Glu>
ATCTOX

>  <Column 15>


>  <Column 16>
91 

>  <Column 17>
91 

>  <Column 18>
83 

>  <Column 19>


>  <Tox-Gal>
CTOXGAL

>  <Column 20>


>  <Column 21>
94 

>  <Column 22>
95 

>  <Column 23>
90 

>  <Column 24>


>  <Column 25>


>  <PAMPA>
PAMPA

>  <Column 26>
114

>  <Column 27>


>  <Column 28>


>  <Mouse>
ATMETMOU

>  <Column 29>
80

>  <Column 30>
Two Peaks

$$$$
Compound 269
Actelion Java MolfileCreator 2.0

  0  0  0  0  0  0              0 V3000
M  V30 BEGIN CTAB
M  V30 COUNTS 17 18 0 0 0
M  V30 BEGIN ATOM
M  V30 1 O 4.4902 -2.4544 0.0 0
M  V30 2 C 4.897 -1.5408 0.0 0
M  V30 3 N 5.8915 -1.4363 0.0 0
M  V30 4 N 4.3092 -0.7318 0.0 0
M  V30 5 C 6.2982 -0.5228 0.0 0
M  V30 6 N 4.7159 0.1816 0.0 0
M  V30 7 C 3.3147 -0.8364 0.0 0
M  V30 8 N 7.2928 -0.4182 0.0 0
M  V30 9 C 5.7105 0.2861 0.0 0
M  V30 10 O 2.6455 -0.0932 0.0 0
M  V30 11 C 2.8147 -1.7024 0.0 0
M  V30 12 C 1.732 -0.5 0.0 0
M  V30 13 O 3.2214 -2.6159 0.0 0
M  V30 14 C 1.8365 -1.4945 0.0 0
M  V30 15 C 0.866 0.0 0.0 0
M  V30 16 O 1.0934 -2.1636 0.0 0
M  V30 17 O 0.0 -0.5 0.0 0
M  V30 END ATOM
M  V30 BEGIN BOND
M  V30 1 2 1 2
M  V30 2 1 2 3
M  V30 3 1 2 4
M  V30 4 2 3 5
M  V30 5 1 4 6
M  V30 6 1 4 7
M  V30 7 1 5 8
M  V30 8 1 5 9
M  V30 9 1 7 10
M  V30 10 1 7 11
M  V30 11 1 10 12
M  V30 12 1 11 13
M  V30 13 1 11 14
M  V30 14 1 12 15
M  V30 15 1 14 16
M  V30 16 1 15 17
M  V30 17 2 6 9
M  V30 18 1 12 14
M  V30 END BOND
M  V30 END CTAB
M  END
>  <Column 1>
268

>  <Column 2>
PandemicResponseBox - Plate D

>  <Column 3>
D05

>  <Column 4>
MMV1580495

>  <Column 5>
10 mM

>  <Column 6>
ANTIVIRALS

>  <Column 7>


>  <Column 8>
None

>  <Column 9>
6-Azacytidine

>  <Column 10>
O=[C]1N=C(N)C=N[N]1C2OC(CO)C(C2O)O

>  <Column 11>
CHEMBL1464327

>  <Column 12>


>  <Column 13>
244.2

>  <Column 14>
C8 H12 N4 O5

>  <Tox-Glu>
ATCTOX

>  <Column 15>


>  <Column 16>
100 

>  <Column 17>
106 

>  <Column 18>
104 

>  <Column 19>


>  <Tox-Gal>
CTOXGAL

>  <Column 20>


>  <Column 21>
99 

>  <Column 22>
98 

>  <Column 23>
101 

>  <Column 24>


>  <Column 25>


>  <PAMPA>
PAMPA

>  <Column 26>
undetected

>  <Column 27>
low sensitivity

>  <Column 28>


>  <Mouse>
ATMETMOU

>  <Column 29>


>  <Column 30>
Not determined; Low sensitivity

$$$$
Compound 270
Actelion Java MolfileCreator 2.0

  0  0  0  0  0  0              0 V3000
M  V30 BEGIN CTAB
M  V30 COUNTS 16 17 0 0 0
M  V30 BEGIN ATOM
M  V30 1 Br 1.299 0.0 0.0 0
M  V30 2 C 0.0 -0.75 0.0 0
M  V30 3 C -1.299 0.0 0.0 0
M  V30 4 C 0.0 -2.25 0.0 0
M  V30 5 O -1.299 1.5 0.0 0
M  V30 6 N -2.598 -0.7499 0.0 0
M  V30 7 N -1.299 -2.9999 0.0 0
M  V30 8 C 1.299 -3.0 0.0 0
M  V30 9 C -2.598 -2.2499 0.0 0
M  V30 10 C 1.299 -4.5 0.0 0
M  V30 11 C 2.598 -2.25 0.0 0
M  V30 12 N -3.8971 -2.9999 0.0 0
M  V30 13 C 2.598 -5.25 0.0 0
M  V30 14 C 3.8971 -3.0 0.0 0
M  V30 15 Cl 2.598 -6.75 0.0 0
M  V30 16 C 3.8971 -4.5 0.0 0
M  V30 END ATOM
M  V30 BEGIN BOND
M  V30 1 1 1 2
M  V30 2 1 2 3
M  V30 3 2 2 4
M  V30 4 2 3 5
M  V30 5 1 3 6
M  V30 6 1 4 7
M  V30 7 1 4 8
M  V30 8 2 6 9
M  V30 9 2 8 10
M  V30 10 1 8 11
M  V30 11 1 9 12
M  V30 12 1 10 13
M  V30 13 2 11 14
M  V30 14 1 13 15
M  V30 15 2 13 16
M  V30 16 1 7 9
M  V30 17 1 14 16
M  V30 END BOND
M  V30 END CTAB
M  END
>  <Column 1>
269

>  <Column 2>
PandemicResponseBox - Plate D

>  <Column 3>
E05

>  <Column 4>
MMV1645152

>  <Column 5>
10 mM

>  <Column 6>
ANTIVIRALS

>  <Column 7>


>  <Column 8>
None

>  <Column 9>


>  <Column 10>
BrC1=C([NH]C(=N[C]1=O)N)C2=CC(=CC=C2)Cl

>  <Column 11>
CHEMBL56530

>  <Column 12>


>  <Column 13>
300.5

>  <Column 14>
C10 H7 Br Cl N3 O

>  <Tox-Glu>
ATCTOX

>  <Column 15>


>  <Column 16>
97 

>  <Column 17>
94 

>  <Column 18>
79 

>  <Column 19>


>  <Tox-Gal>
CTOXGAL

>  <Column 20>


>  <Column 21>
98 

>  <Column 22>
91 

>  <Column 23>
1 

>  <Column 24>


>  <Column 25>


>  <PAMPA>
PAMPA

>  <Column 26>
94

>  <Column 27>


>  <Column 28>


>  <Mouse>
ATMETMOU

>  <Column 29>
-2

>  <Column 30>


$$$$
Compound 271
Actelion Java MolfileCreator 2.0

  0  0  0  0  0  0              0 V3000
M  V30 BEGIN CTAB
M  V30 COUNTS 20 22 0 0 0
M  V30 BEGIN ATOM
M  V30 1 F 3.2214 -2.6159 0.0 0
M  V30 2 C 2.8147 -1.7024 0.0 0 CFG=1
M  V30 3 C 3.3147 -0.8364 0.0 0 CFG=1
M  V30 4 C 1.8365 -1.4945 0.0 0 CFG=2
M  V30 5 O 2.6455 -0.0932 0.0 0
M  V30 6 N 4.3092 -0.7318 0.0 0
M  V30 7 O 1.0934 -2.1636 0.0 0
M  V30 8 C 1.732 -0.5 0.0 0 CFG=2
M  V30 9 C 4.9783 -1.475 0.0 0
M  V30 10 C 4.8092 0.1341 0.0 0
M  V30 11 C 0.866 0.0 0.0 0
M  V30 12 N 4.8738 -2.4695 0.0 0
M  V30 13 C 5.8919 -1.0682 0.0 0
M  V30 14 N 5.7873 -0.0737 0.0 0
M  V30 15 O 0.0 -0.5 0.0 0
M  V30 16 C 5.6828 -3.0573 0.0 0
M  V30 17 C 6.7009 -1.656 0.0 0
M  V30 18 N 6.5964 -2.6505 0.0 0
M  V30 19 N 5.5783 -4.0518 0.0 0
M  V30 20 O 7.6144 -1.2493 0.0 0
M  V30 END ATOM
M  V30 BEGIN BOND
M  V30 1 1 2 1 CFG=3
M  V30 2 1 3 2
M  V30 3 1 4 2
M  V30 4 1 3 5
M  V30 5 1 3 6 CFG=1
M  V30 6 1 4 7 CFG=3
M  V30 7 1 8 4
M  V30 8 1 6 9
M  V30 9 1 6 10
M  V30 10 1 8 11 CFG=1
M  V30 11 1 9 12
M  V30 12 2 9 13
M  V30 13 2 10 14
M  V30 14 1 11 15
M  V30 15 2 12 16
M  V30 16 1 13 17
M  V30 17 1 16 18
M  V30 18 1 16 19
M  V30 19 2 17 20
M  V30 20 1 5 8
M  V30 21 1 13 14
M  V30 22 1 17 18
M  V30 END BOND
M  V30 BEGIN COLLECTION
M  V30 MDLV30/STEABS ATOMS=(4 2 3 4 8)
M  V30 END COLLECTION
M  V30 END CTAB
M  END
>  <Column 1>
270

>  <Column 2>
PandemicResponseBox - Plate D

>  <Column 3>
F05

>  <Column 4>
MMV1633677

>  <Column 5>
10 mM

>  <Column 6>
ANTIVIRALS

>  <Column 7>


>  <Column 8>
None

>  <Column 9>
Ro-24-7429

>  <Column 10>
F[C@H]1[C@@H](O[C@@H]([C@H]1O)CO)[N]3C2=C([C](=O)[NH]C(=N2)N)N=C3

>  <Column 11>
CHEMBL308759

>  <Column 12>


>  <Column 13>
285.2

>  <Column 14>
C10 H12 F N5 O4

>  <Tox-Glu>
ATCTOX

>  <Column 15>


>  <Column 16>
93 

>  <Column 17>
92 

>  <Column 18>
84 

>  <Column 19>


>  <Tox-Gal>
CTOXGAL

>  <Column 20>


>  <Column 21>
97 

>  <Column 22>
95 

>  <Column 23>
100 

>  <Column 24>


>  <Column 25>


>  <PAMPA>
PAMPA

>  <Column 26>
undetected

>  <Column 27>
low sensitivity

>  <Column 28>


>  <Mouse>
ATMETMOU

>  <Column 29>


>  <Column 30>
Not determined; Low sensitivity

$$$$
Compound 272
Actelion Java MolfileCreator 2.0

  0  0  0  0  0  0              0 V3000
M  V30 BEGIN CTAB
M  V30 COUNTS 18 19 0 0 0
M  V30 BEGIN ATOM
M  V30 1 O 4.1282 0.9906 0.0 0
M  V30 2 C 4.7159 0.1816 0.0 0
M  V30 3 N 4.3092 -0.7318 0.0 0
M  V30 4 N 5.7105 0.2861 0.0 0
M  V30 5 C 4.897 -1.5408 0.0 0
M  V30 6 C 3.3147 -0.8364 0.0 0 CFG=2
M  V30 7 C 6.2982 -0.5228 0.0 0
M  V30 8 C 5.8915 -1.4363 0.0 0
M  V30 9 O 2.6455 -0.0932 0.0 0
M  V30 10 C 2.8147 -1.7024 0.0 0
M  V30 11 O 7.2928 -0.4182 0.0 0
M  V30 12 C 1.732 -0.5 0.0 0 CFG=1
M  V30 13 C 1.8365 -1.4945 0.0 0 CFG=1
M  V30 14 C 0.866 0.0 0.0 0
M  V30 15 N 1.0934 -2.1636 0.0 0
M  V30 16 O 0.0 -0.5 0.0 0
M  V30 17 N 1.3013 -3.1418 0.0 0 CHG=1
M  V30 18 N 1.5092 -4.1199 0.0 0 CHG=-1
M  V30 END ATOM
M  V30 BEGIN BOND
M  V30 1 2 1 2
M  V30 2 1 2 3
M  V30 3 1 2 4
M  V30 4 1 3 5
M  V30 5 1 6 3 CFG=1
M  V30 6 1 4 7
M  V30 7 2 5 8
M  V30 8 1 6 9
M  V30 9 1 6 10
M  V30 10 2 7 11
M  V30 11 1 12 9
M  V30 12 1 13 10
M  V30 13 1 12 14 CFG=1
M  V30 14 1 13 15 CFG=3
M  V30 15 1 14 16
M  V30 16 2 15 17
M  V30 17 2 17 18
M  V30 18 1 7 8
M  V30 19 1 12 13
M  V30 END BOND
M  V30 BEGIN COLLECTION
M  V30 MDLV30/STEABS ATOMS=(3 6 12 13)
M  V30 END COLLECTION
M  V30 END CTAB
M  END
>  <Column 1>
271

>  <Column 2>
PandemicResponseBox - Plate D

>  <Column 3>
G05

>  <Column 4>
MMV1593520

>  <Column 5>
10 mM

>  <Column 6>
ANTIVIRALS

>  <Column 7>


>  <Column 8>
None

>  <Column 9>
Navuridine

>  <Column 10>
OC[C@H]1O[C@H](C[C@@H]1N=[N+]=[N-])[N]2C=C[C](=O)[NH][C]2=O

>  <Column 11>
CHEMBL591804

>  <Column 12>


>  <Column 13>
253.2

>  <Column 14>
C9 H11 N5 O4

>  <Tox-Glu>
ATCTOX

>  <Column 15>


>  <Column 16>
95 

>  <Column 17>
101 

>  <Column 18>
93 

>  <Column 19>


>  <Tox-Gal>
CTOXGAL

>  <Column 20>


>  <Column 21>
97 

>  <Column 22>
97 

>  <Column 23>
94 

>  <Column 24>


>  <Column 25>


>  <PAMPA>
PAMPA

>  <Column 26>
12

>  <Column 27>


>  <Column 28>


>  <Mouse>
ATMETMOU

>  <Column 29>
-4

>  <Column 30>
Large variations

$$$$
Compound 273
Actelion Java MolfileCreator 2.0

  0  0  0  0  0  0              0 V3000
M  V30 BEGIN CTAB
M  V30 COUNTS 20 21 0 0 0
M  V30 BEGIN ATOM
M  V30 1 O 6.9282 -0.5 0.0 0
M  V30 2 N 6.0621 0.0 0.0 0 CHG=1 VAL=5
M  V30 3 O 6.0621 0.9999 0.0 0 CHG=-1
M  V30 4 C 5.1961 -0.5 0.0 0
M  V30 5 C 4.3301 0.0 0.0 0
M  V30 6 C 5.1961 -1.4999 0.0 0
M  V30 7 C 3.4641 -0.5 0.0 0
M  V30 8 C 4.3301 -1.9999 0.0 0
M  V30 9 N 2.598 0.0 0.0 0
M  V30 10 C 3.4641 -1.4999 0.0 0
M  V30 11 C 1.732 -0.5 0.0 0
M  V30 12 O 1.732 -1.5 0.0 0
M  V30 13 N 0.866 0.0 0.0 0
M  V30 14 C 0.0 -0.5 0.0 0
M  V30 15 C -0.866 0.0 0.0 0
M  V30 16 C 0.0 -1.4999 0.0 0
M  V30 17 C -1.732 -0.4999 0.0 0
M  V30 18 C -0.866 1.0 0.0 0
M  V30 19 C -0.866 -1.9999 0.0 0
M  V30 20 C -1.732 -1.4999 0.0 0
M  V30 END ATOM
M  V30 BEGIN BOND
M  V30 1 2 1 2
M  V30 2 1 2 3
M  V30 3 1 2 4
M  V30 4 2 4 5
M  V30 5 1 4 6
M  V30 6 1 5 7
M  V30 7 2 6 8
M  V30 8 1 7 9
M  V30 9 2 7 10
M  V30 10 1 9 11
M  V30 11 2 11 12
M  V30 12 1 11 13
M  V30 13 1 13 14
M  V30 14 2 14 15
M  V30 15 1 14 16
M  V30 16 1 15 17
M  V30 17 1 15 18
M  V30 18 2 16 19
M  V30 19 2 17 20
M  V30 20 1 8 10
M  V30 21 1 19 20
M  V30 END BOND
M  V30 END CTAB
M  END
>  <Column 1>
272

>  <Column 2>
PandemicResponseBox - Plate D

>  <Column 3>
H05

>  <Column 4>
MMV1581029

>  <Column 5>
10 mM

>  <Column 6>
ANTIVIRALS

>  <Column 7>
1

>  <Column 8>
Free Base/Acid

>  <Column 9>


>  <Column 10>
O=[N](=O)C1=CC(=CC=C1)NC(=O)NC2=C(C=CC=C2)C

>  <Column 11>
CHEMBL2011807

>  <Column 12>


>  <Column 13>
271.3

>  <Column 14>
C14 H13 N3 O3

>  <Tox-Glu>
ATCTOX

>  <Column 15>


>  <Column 16>
101 

>  <Column 17>
91 

>  <Column 18>
71 

>  <Column 19>


>  <Tox-Gal>
CTOXGAL

>  <Column 20>


>  <Column 21>
103 

>  <Column 22>
84 

>  <Column 23>
76 

>  <Column 24>


>  <Column 25>


>  <PAMPA>
PAMPA

>  <Column 26>
117

>  <Column 27>


>  <Column 28>


>  <Mouse>
ATMETMOU

>  <Column 29>
342

>  <Column 30>


$$$$
Compound 274
Actelion Java MolfileCreator 2.0

  0  0  0  0  0  0              0 V3000
M  V30 BEGIN CTAB
M  V30 COUNTS 40 41 0 0 0
M  V30 BEGIN ATOM
M  V30 1 F 11.2583 0.9999 0.0 0
M  V30 2 C 11.2583 0.0 0.0 0
M  V30 3 C 10.3923 -0.5 0.0 0
M  V30 4 C 12.1243 -0.5 0.0 0
M  V30 5 O 9.5262 0.0 0.0 0
M  V30 6 C 10.3923 -1.5 0.0 0
M  V30 7 F 12.9903 0.0 0.0 0
M  V30 8 C 12.1243 -1.5 0.0 0
M  V30 9 C 8.6602 -0.5 0.0 0
M  V30 10 F 9.5262 -2.0 0.0 0
M  V30 11 C 11.2583 -2.0 0.0 0
M  V30 12 C 7.7942 0.0 0.0 0
M  V30 13 F 11.2583 -3.0 0.0 0
M  V30 14 O 7.7942 0.9999 0.0 0
M  V30 15 C 6.9282 -0.5 0.0 0 CFG=1
M  V30 16 N 6.0621 0.0 0.0 0
M  V30 17 C 6.9282 -1.4999 0.0 0
M  V30 18 C 5.1961 -0.5 0.0 0
M  V30 19 C 7.7942 -2.0 0.0 0
M  V30 20 O 5.1961 -1.4999 0.0 0
M  V30 21 C 4.3301 0.0 0.0 0 CFG=1
M  V30 22 O 8.6602 -1.4999 0.0 0
M  V30 23 O 7.7942 -2.9999 0.0 0
M  V30 24 N 3.4641 -0.5 0.0 0
M  V30 25 C 4.3301 1.0 0.0 0
M  V30 26 C 2.598 0.0 0.0 0
M  V30 27 O 2.598 1.0 0.0 0
M  V30 28 C 1.732 -0.5 0.0 0
M  V30 29 O 1.732 -1.5 0.0 0
M  V30 30 N 0.866 0.0 0.0 0
M  V30 31 C 0.0 -0.5 0.0 0
M  V30 32 C -0.866 0.0 0.0 0
M  V30 33 C 0.0 -1.4999 0.0 0
M  V30 34 C -1.732 -0.4999 0.0 0
M  V30 35 C -0.866 1.0 0.0 0
M  V30 36 C -0.866 -1.9999 0.0 0
M  V30 37 C -1.732 -1.4999 0.0 0
M  V30 38 C -1.866 1.0 0.0 0
M  V30 39 C -0.866 2.0 0.0 0
M  V30 40 C 0.1339 0.9999 0.0 0
M  V30 END ATOM
M  V30 BEGIN BOND
M  V30 1 1 1 2
M  V30 2 2 2 3
M  V30 3 1 2 4
M  V30 4 1 3 5
M  V30 5 1 3 6
M  V30 6 1 4 7
M  V30 7 2 4 8
M  V30 8 1 5 9
M  V30 9 1 6 10
M  V30 10 2 6 11
M  V30 11 1 9 12
M  V30 12 1 11 13
M  V30 13 2 12 14
M  V30 14 1 15 12
M  V30 15 1 15 16 CFG=3
M  V30 16 1 15 17
M  V30 17 1 16 18
M  V30 18 1 17 19
M  V30 19 2 18 20
M  V30 20 1 21 18
M  V30 21 2 19 22
M  V30 22 1 19 23
M  V30 23 1 21 24 CFG=1
M  V30 24 1 21 25
M  V30 25 1 24 26
M  V30 26 2 26 27
M  V30 27 1 26 28
M  V30 28 2 28 29
M  V30 29 1 28 30
M  V30 30 1 30 31
M  V30 31 2 31 32
M  V30 32 1 31 33
M  V30 33 1 32 34
M  V30 34 1 32 35
M  V30 35 2 33 36
M  V30 36 2 34 37
M  V30 37 1 35 38
M  V30 38 1 35 39
M  V30 39 1 35 40
M  V30 40 1 8 11
M  V30 41 1 36 37
M  V30 END BOND
M  V30 BEGIN COLLECTION
M  V30 MDLV30/STEABS ATOMS=(2 15 21)
M  V30 END COLLECTION
M  V30 END CTAB
M  END
>  <Column 1>
273

>  <Column 2>
PandemicResponseBox - Plate D

>  <Column 3>
A06

>  <Column 4>
MMV1580794

>  <Column 5>
10 mM

>  <Column 6>
ANTIVIRALS

>  <Column 7>


>  <Column 8>
None

>  <Column 9>
Emricasan

>  <Column 10>
C[C@H](NC(=O)C(=O)Nc1ccccc1C(C)(C)C)C(=O)N[C@@H](CC(=O)O)C(=O)COc2c(F)c(F)cc(F)c2F

>  <Column 11>
CHEMBL197672

>  <Column 12>


>  <Column 13>
569.5

>  <Column 14>
C26 H27 F4 N3 O7

>  <Tox-Glu>
ATCTOX

>  <Column 15>


>  <Column 16>
109 

>  <Column 17>
115 

>  <Column 18>
103 

>  <Column 19>


>  <Tox-Gal>
CTOXGAL

>  <Column 20>


>  <Column 21>
101 

>  <Column 22>
100 

>  <Column 23>
100 

>  <Column 24>


>  <Column 25>


>  <PAMPA>
PAMPA

>  <Column 26>
12

>  <Column 27>


>  <Column 28>


>  <Mouse>
ATMETMOU

>  <Column 29>
7

>  <Column 30>
Large variations

$$$$
Compound 275
Actelion Java MolfileCreator 2.0

  0  0  0  0  0  0              0 V3000
M  V30 BEGIN CTAB
M  V30 COUNTS 29 30 0 0 0
M  V30 BEGIN ATOM
M  V30 1 O 11.6913 1.5 0.0 0
M  V30 2 C 11.6913 0.0 0.0 0
M  V30 3 N 12.9904 -0.75 0.0 0
M  V30 4 C 10.3923 -0.75 0.0 0
M  V30 5 C 14.2894 0.0 0.0 0
M  V30 6 C 9.0932 0.0 0.0 0
M  V30 7 C 15.5884 -0.75 0.0 0
M  V30 8 C 14.2894 1.5 0.0 0
M  V30 9 C 7.7942 -0.75 0.0 0
M  V30 10 C 9.0932 1.5 0.0 0
M  V30 11 C 16.8875 0.0 0.0 0
M  V30 12 C 15.5884 2.25 0.0 0
M  V30 13 C 6.4952 0.0 0.0 0
M  V30 14 C 16.8875 1.5 0.0 0
M  V30 15 C 5.1961 -0.75 0.0 0
M  V30 16 O 18.1865 2.25 0.0 0
M  V30 17 C 3.8971 0.0 0.0 0
M  V30 18 C 2.598 -0.75 0.0 0
M  V30 19 C 3.8971 1.5 0.0 0
M  V30 20 C 1.299 0.0 0.0 0
M  V30 21 C 0.0 -0.75 0.0 0
M  V30 22 C -1.299 0.0 0.0 0
M  V30 23 C 0.0 -2.25 0.0 0
M  V30 24 C -2.598 -0.75 0.0 0
M  V30 25 C -1.299 1.5 0.0 0
M  V30 26 C -1.299 -3.0 0.0 0
M  V30 27 C 0.7499 -3.549 0.0 0
M  V30 28 C 1.4999 -2.2499 0.0 0
M  V30 29 C -2.598 -2.25 0.0 0
M  V30 END ATOM
M  V30 BEGIN BOND
M  V30 1 2 1 2
M  V30 2 1 2 3
M  V30 3 1 2 4
M  V30 4 1 3 5
M  V30 5 2 4 6
M  V30 6 2 5 7
M  V30 7 1 5 8
M  V30 8 1 6 9
M  V30 9 1 6 10
M  V30 10 1 7 11
M  V30 11 2 8 12
M  V30 12 2 9 13
M  V30 13 2 11 14
M  V30 14 1 13 15
M  V30 15 1 14 16
M  V30 16 2 15 17
M  V30 17 1 17 18
M  V30 18 1 17 19
M  V30 19 2 18 20
M  V30 20 1 20 21
M  V30 21 2 21 22
M  V30 22 1 21 23
M  V30 23 1 22 24
M  V30 24 1 22 25
M  V30 25 1 23 26
M  V30 26 1 23 27
M  V30 27 1 23 28
M  V30 28 1 24 29
M  V30 29 1 12 14
M  V30 30 1 26 29
M  V30 END BOND
M  V30 END CTAB
M  END
>  <Column 1>
274

>  <Column 2>
PandemicResponseBox - Plate D

>  <Column 3>
B06

>  <Column 4>
MMV001793

>  <Column 5>
10 mM

>  <Column 6>
ANTIVIRALS

>  <Column 7>


>  <Column 8>
None

>  <Column 9>
Fenretinide

>  <Column 10>
O=C(NC1=CC=C(O)C=C1)\C=C(\C=C\C=C(\C=C\C2=C(CCCC2(C)C)C)C)C

>  <Column 11>
CHEMBL7301

>  <Column 12>
WO2018146110;Antiviral Research (2017)147, 124-130;US 20160074346

>  <Column 13>
391.6

>  <Column 14>
C26H33NO2

>  <Tox-Glu>
ATCTOX

>  <Column 15>


>  <Column 16>
84 

>  <Column 17>
21 

>  <Column 18>
1 

>  <Column 19>


>  <Tox-Gal>
CTOXGAL

>  <Column 20>


>  <Column 21>
90 

>  <Column 22>
1 

>  <Column 23>
1 

>  <Column 24>


>  <Column 25>


>  <PAMPA>
PAMPA

>  <Column 26>
undetected

>  <Column 27>
low sensitivity

>  <Column 28>


>  <Mouse>
ATMETMOU

>  <Column 29>
35

>  <Column 30>


$$$$
Compound 276
Actelion Java MolfileCreator 2.0

  0  0  0  0  0  0              0 V3000
M  V30 BEGIN CTAB
M  V30 COUNTS 21 23 0 0 0
M  V30 BEGIN ATOM
M  V30 1 S 2.598 -0.75 0.0 0
M  V30 2 O 1.848 -2.049 0.0 0
M  V30 3 O 3.348 -2.049 0.0 0
M  V30 4 N 1.299 0.0 0.0 0
M  V30 5 C 3.8971 0.0 0.0 0
M  V30 6 C 0.0 -0.75 0.0 0
M  V30 7 C 5.1961 -0.75 0.0 0
M  V30 8 C 3.8971 1.5 0.0 0
M  V30 9 C -1.299 0.0 0.0 0
M  V30 10 C 0.0 -2.25 0.0 0
M  V30 11 N 5.1961 -2.25 0.0 0
M  V30 12 C 6.4952 0.0 0.0 0
M  V30 13 C 5.1961 2.25 0.0 0
M  V30 14 C -2.598 -0.75 0.0 0
M  V30 15 C -1.299 -3.0 0.0 0
M  V30 16 C 6.4952 -3.0 0.0 0
M  V30 17 C 7.7942 -0.75 0.0 0
M  V30 18 C 6.4952 1.5 0.0 0
M  V30 19 C -2.598 -2.25 0.0 0
M  V30 20 C 7.7942 -2.25 0.0 0
M  V30 21 O -3.8971 -3.0 0.0 0
M  V30 END ATOM
M  V30 BEGIN BOND
M  V30 1 2 1 2
M  V30 2 2 1 3
M  V30 3 1 1 4
M  V30 4 1 1 5
M  V30 5 1 4 6
M  V30 6 1 5 7
M  V30 7 2 5 8
M  V30 8 2 6 9
M  V30 9 1 6 10
M  V30 10 2 7 11
M  V30 11 1 7 12
M  V30 12 1 8 13
M  V30 13 1 9 14
M  V30 14 2 10 15
M  V30 15 1 11 16
M  V30 16 2 12 17
M  V30 17 1 12 18
M  V30 18 2 14 19
M  V30 19 2 16 20
M  V30 20 1 19 21
M  V30 21 2 13 18
M  V30 22 1 15 19
M  V30 23 1 17 20
M  V30 END BOND
M  V30 END CTAB
M  END
>  <Column 1>
275

>  <Column 2>
PandemicResponseBox - Plate D

>  <Column 3>
C06

>  <Column 4>
MMV251679

>  <Column 5>
10 mM

>  <Column 6>
ANTIVIRALS

>  <Column 7>


>  <Column 8>
None

>  <Column 9>


>  <Column 10>
[S](=O)(=O)(NC1=CC=C(O)C=C1)C2=CC=CC3=CC=CN=C23

>  <Column 11>
CHEMBL1530310

>  <Column 12>


>  <Column 13>
300.3

>  <Column 14>
C15H12N2O3S

>  <Tox-Glu>
ATCTOX

>  <Column 15>


>  <Column 16>
99 

>  <Column 17>
106 

>  <Column 18>
98 

>  <Column 19>


>  <Tox-Gal>
CTOXGAL

>  <Column 20>


>  <Column 21>
98 

>  <Column 22>
100 

>  <Column 23>
98 

>  <Column 24>


>  <Column 25>


>  <PAMPA>
PAMPA

>  <Column 26>
141

>  <Column 27>


>  <Column 28>


>  <Mouse>
ATMETMOU

>  <Column 29>
-13

>  <Column 30>


$$$$
Compound 277
Actelion Java MolfileCreator 2.0

  0  0  0  0  0  0              0 V3000
M  V30 BEGIN CTAB
M  V30 COUNTS 19 20 0 0 0
M  V30 BEGIN ATOM
M  V30 1 F 4.6961 2.366 0.0 0
M  V30 2 C 5.1961 1.5 0.0 0
M  V30 3 F 6.0621 2.0 0.0 0
M  V30 4 F 5.6961 0.6339 0.0 0
M  V30 5 C 4.3301 1.0 0.0 0
M  V30 6 C 3.4641 1.5 0.0 0
M  V30 7 C 4.3301 0.0 0.0 0
M  V30 8 C 2.598 0.9999 0.0 0
M  V30 9 C 3.4641 -0.4999 0.0 0
M  V30 10 C 2.598 0.0 0.0 0
M  V30 11 N 1.732 -0.5 0.0 0
M  V30 12 C 0.866 0.0 0.0 0
M  V30 13 O 0.866 1.0 0.0 0
M  V30 14 C 0.0 -0.5 0.0 0
M  V30 15 C -0.9135 -0.0932 0.0 0
M  V30 16 C -0.1045 -1.4945 0.0 0
M  V30 17 O -1.5826 -0.8364 0.0 0
M  V30 18 C -1.1214 0.8848 0.0 0
M  V30 19 N -1.0826 -1.7024 0.0 0
M  V30 END ATOM
M  V30 BEGIN BOND
M  V30 1 1 1 2
M  V30 2 1 2 3
M  V30 3 1 2 4
M  V30 4 1 2 5
M  V30 5 2 5 6
M  V30 6 1 5 7
M  V30 7 1 6 8
M  V30 8 2 7 9
M  V30 9 2 8 10
M  V30 10 1 10 11
M  V30 11 1 11 12
M  V30 12 2 12 13
M  V30 13 1 12 14
M  V30 14 2 14 15
M  V30 15 1 14 16
M  V30 16 1 15 17
M  V30 17 1 15 18
M  V30 18 2 16 19
M  V30 19 1 9 10
M  V30 20 1 17 19
M  V30 END BOND
M  V30 END CTAB
M  END
>  <Column 1>
276

>  <Column 2>
PandemicResponseBox - Plate D

>  <Column 3>
D06

>  <Column 4>
MMV003291

>  <Column 5>
10 mM

>  <Column 6>
ANTIVIRALS

>  <Column 7>


>  <Column 8>
None

>  <Column 9>
Leflunomide

>  <Column 10>
FC(F)(F)C2=CC=C(NC(=O)C1=C(ON=C1)C)C=C2

>  <Column 11>
CHEMBL960

>  <Column 12>


>  <Column 13>
270.2

>  <Column 14>
C12H9F3N2O2

>  <Tox-Glu>
ATCTOX

>  <Column 15>


>  <Column 16>
91 

>  <Column 17>
87 

>  <Column 18>
56 

>  <Column 19>


>  <Tox-Gal>
CTOXGAL

>  <Column 20>


>  <Column 21>
93 

>  <Column 22>
87 

>  <Column 23>
57 

>  <Column 24>


>  <Column 25>


>  <PAMPA>
PAMPA

>  <Column 26>
133

>  <Column 27>


>  <Column 28>


>  <Mouse>
ATMETMOU

>  <Column 29>


>  <Column 30>
Not determined; Two Peaks

$$$$
Compound 278
Actelion Java MolfileCreator 2.0

  0  0  0  0  0  0              0 V3000
M  V30 BEGIN CTAB
M  V30 COUNTS 37 41 0 0 0
M  V30 BEGIN ATOM
M  V30 1 O 2.598 0.0 0.0 0
M  V30 2 C 1.732 -0.5 0.0 0
M  V30 3 N 0.866 0.0 0.0 0
M  V30 4 C 1.732 -1.5 0.0 0
M  V30 5 C 0.0 -0.5 0.0 0
M  V30 6 C 0.866 -1.9999 0.0 0
M  V30 7 C 2.598 -1.9999 0.0 0
M  V30 8 C -0.866 0.0 0.0 0
M  V30 9 C 0.0 -1.4999 0.0 0
M  V30 10 C 0.866 -2.9999 0.0 0
M  V30 11 C 2.598 -2.9999 0.0 0
M  V30 12 C -1.732 -0.4999 0.0 0
M  V30 13 C -0.866 -1.9999 0.0 0
M  V30 14 C 1.732 -3.4999 0.0 0
M  V30 15 N -2.598 0.0 0.0 0
M  V30 16 C -1.732 -1.4999 0.0 0
M  V30 17 C 1.732 -4.5 0.0 0
M  V30 18 C -3.4641 -0.4999 0.0 0
M  V30 19 C -2.598 -1.9999 0.0 0
M  V30 20 N 2.598 -4.9999 0.0 0
M  V30 21 N -4.3301 0.0 0.0 0
M  V30 22 N -3.4641 -1.4999 0.0 0
M  V30 23 C 2.598 -5.9999 0.0 0
M  V30 24 C 3.4641 -4.5 0.0 0
M  V30 25 C -5.1961 -0.4999 0.0 0
M  V30 26 C -4.3301 -1.9999 0.0 0
M  V30 27 C 3.4641 -6.4999 0.0 0
M  V30 28 C 4.3301 -5.0 0.0 0
M  V30 29 C -6.0621 0.0 0.0 0
M  V30 30 C -5.1961 -1.4999 0.0 0
M  V30 31 N 4.3301 -5.9999 0.0 0
M  V30 32 C -6.0621 1.0 0.0 0
M  V30 33 C -6.9282 -0.4999 0.0 0
M  V30 34 C 5.1961 -6.4999 0.0 0
M  V30 35 N -6.9282 1.5 0.0 0
M  V30 36 C -7.7942 0.0 0.0 0
M  V30 37 C -7.7942 1.0 0.0 0
M  V30 END ATOM
M  V30 BEGIN BOND
M  V30 1 2 1 2
M  V30 2 1 2 3
M  V30 3 1 2 4
M  V30 4 1 3 5
M  V30 5 2 4 6
M  V30 6 1 4 7
M  V30 7 2 5 8
M  V30 8 1 5 9
M  V30 9 1 6 10
M  V30 10 2 7 11
M  V30 11 1 8 12
M  V30 12 2 9 13
M  V30 13 2 10 14
M  V30 14 1 12 15
M  V30 15 2 12 16
M  V30 16 1 14 17
M  V30 17 1 15 18
M  V30 18 1 16 19
M  V30 19 1 17 20
M  V30 20 2 18 21
M  V30 21 1 18 22
M  V30 22 1 20 23
M  V30 23 1 20 24
M  V30 24 1 21 25
M  V30 25 2 22 26
M  V30 26 1 23 27
M  V30 27 1 24 28
M  V30 28 1 25 29
M  V30 29 2 25 30
M  V30 30 1 27 31
M  V30 31 2 29 32
M  V30 32 1 29 33
M  V30 33 1 31 34
M  V30 34 1 32 35
M  V30 35 2 33 36
M  V30 36 2 35 37
M  V30 37 1 11 14
M  V30 38 1 13 16
M  V30 39 1 26 30
M  V30 40 1 28 31
M  V30 41 1 36 37
M  V30 END BOND
M  V30 END CTAB
M  END
>  <Column 1>
277

>  <Column 2>
PandemicResponseBox - Plate D

>  <Column 3>
E06

>  <Column 4>
MMV009948

>  <Column 5>
10 mM

>  <Column 6>
ANTIVIRALS

>  <Column 7>


>  <Column 8>
None

>  <Column 9>
Imatinib

>  <Column 10>
O=C(NC1=CC(=C(C)C=C1)NC2=NC(=CC=N2)C3=CN=CC=C3)C5=CC=C(CN4CCN(C)CC4)C=C5

>  <Column 11>
CHEMBL941

>  <Column 12>
US8293745

>  <Column 13>
493.6

>  <Column 14>
C29H31N7O

>  <Tox-Glu>
ATCTOX

>  <Column 15>


>  <Column 16>
87 

>  <Column 17>
33 

>  <Column 18>
0 

>  <Column 19>


>  <Tox-Gal>
CTOXGAL

>  <Column 20>


>  <Column 21>
80 

>  <Column 22>
36 

>  <Column 23>
0 

>  <Column 24>


>  <Column 25>


>  <PAMPA>
PAMPA

>  <Column 26>
315

>  <Column 27>


>  <Column 28>


>  <Mouse>
ATMETMOU

>  <Column 29>
55

>  <Column 30>


$$$$
Compound 279
Actelion Java MolfileCreator 2.0

  0  0  0  0  0  0              0 V3000
M  V30 BEGIN CTAB
M  V30 COUNTS 18 19 0 0 0
M  V30 BEGIN ATOM
M  V30 1 O 0.866 0.0 0.0 0
M  V30 2 C 1.732 -0.5 0.0 0
M  V30 3 C 0.0 -0.5 0.0 0
M  V30 4 C 1.732 -1.5 0.0 0
M  V30 5 C 2.598 0.0 0.0 0
M  V30 6 C -0.866 0.0 0.0 0
M  V30 7 C 0.0 -1.4999 0.0 0
M  V30 8 C 2.598 -2.0 0.0 0
M  V30 9 C 3.4641 -0.5 0.0 0
M  V30 10 C -1.732 -0.4999 0.0 0
M  V30 11 C -0.866 -1.9999 0.0 0
M  V30 12 C 3.4641 -1.5 0.0 0
M  V30 13 C -1.732 -1.4999 0.0 0
M  V30 14 N 4.3301 -2.0 0.0 0
M  V30 15 C -2.598 -1.9999 0.0 0
M  V30 16 C -2.098 -2.866 0.0 0
M  V30 17 C -3.4641 -2.4999 0.0 0
M  V30 18 C -3.098 -1.1339 0.0 0
M  V30 END ATOM
M  V30 BEGIN BOND
M  V30 1 1 1 2
M  V30 2 1 1 3
M  V30 3 2 2 4
M  V30 4 1 2 5
M  V30 5 2 3 6
M  V30 6 1 3 7
M  V30 7 1 4 8
M  V30 8 2 5 9
M  V30 9 1 6 10
M  V30 10 2 7 11
M  V30 11 2 8 12
M  V30 12 2 10 13
M  V30 13 1 12 14
M  V30 14 1 13 15
M  V30 15 1 15 16
M  V30 16 1 15 17
M  V30 17 1 15 18
M  V30 18 1 9 12
M  V30 19 1 11 13
M  V30 END BOND
M  V30 END CTAB
M  END
>  <Column 1>
278

>  <Column 2>
PandemicResponseBox - Plate D

>  <Column 3>
F06

>  <Column 4>
MMV1174026

>  <Column 5>
10 mM

>  <Column 6>
ANTIVIRALS

>  <Column 7>


>  <Column 8>
None

>  <Column 9>


>  <Column 10>
O(C1=CC=C(N)C=C1)C2=CC=C(C(C)(C)C)C=C2

>  <Column 11>
CHEMBL1459578

>  <Column 12>


>  <Column 13>
241.3

>  <Column 14>
C16H19NO

>  <Tox-Glu>
ATCTOX

>  <Column 15>


>  <Column 16>
85 

>  <Column 17>
35 

>  <Column 18>
1 

>  <Column 19>


>  <Tox-Gal>
CTOXGAL

>  <Column 20>


>  <Column 21>
96 

>  <Column 22>
35 

>  <Column 23>
0 

>  <Column 24>


>  <Column 25>


>  <PAMPA>
PAMPA

>  <Column 26>
201

>  <Column 27>


>  <Column 28>


>  <Mouse>
ATMETMOU

>  <Column 29>
269

>  <Column 30>


$$$$
Compound 280
Actelion Java MolfileCreator 2.0

  0  0  0  0  0  0              0 V3000
M  V30 BEGIN CTAB
M  V30 COUNTS 26 28 0 0 0
M  V30 BEGIN ATOM
M  V30 1 O 5.1961 -0.75 0.0 0
M  V30 2 C 3.8971 0.0 0.0 0
M  V30 3 C 2.598 -0.75 0.0 0 CFG=2
M  V30 4 N 2.598 -2.25 0.0 0
M  V30 5 C 1.299 0.0 0.0 0
M  V30 6 C 3.8971 -3.0 0.0 0
M  V30 7 C 0.0 -0.75 0.0 0
M  V30 8 N 3.8971 -4.5 0.0 0
M  V30 9 N 5.1961 -2.25 0.0 0
M  V30 10 C 5.1961 -5.25 0.0 0
M  V30 11 C 6.4951 -2.9999 0.0 0
M  V30 12 N 5.1961 -6.75 0.0 0
M  V30 13 C 6.4951 -4.4999 0.0 0
M  V30 14 N 7.9217 -2.5364 0.0 0
M  V30 15 C 3.8971 -7.5 0.0 0
M  V30 16 N 7.9217 -4.9635 0.0 0
M  V30 17 C 8.8034 -3.75 0.0 0
M  V30 18 C 8.3853 -1.1098 0.0 0
M  V30 19 C 3.8971 -9.0 0.0 0
M  V30 20 C 9.8525 -0.798 0.0 0
M  V30 21 C 7.3816 0.0048 0.0 0
M  V30 22 C 2.598 -9.7499 0.0 0
M  V30 23 C 5.1961 -9.75 0.0 0
M  V30 24 C 2.598 -11.2499 0.0 0
M  V30 25 C 5.1961 -11.25 0.0 0
M  V30 26 C 3.8971 -11.9999 0.0 0
M  V30 END ATOM
M  V30 BEGIN BOND
M  V30 1 1 1 2
M  V30 2 1 3 2
M  V30 3 1 3 4 CFG=3
M  V30 4 1 3 5
M  V30 5 1 4 6
M  V30 6 1 5 7
M  V30 7 2 6 8
M  V30 8 1 6 9
M  V30 9 1 8 10
M  V30 10 2 9 11
M  V30 11 1 10 12
M  V30 12 2 10 13
M  V30 13 1 11 14
M  V30 14 1 12 15
M  V30 15 1 13 16
M  V30 16 1 14 17
M  V30 17 1 14 18
M  V30 18 1 15 19
M  V30 19 1 18 20
M  V30 20 1 18 21
M  V30 21 2 19 22
M  V30 22 1 19 23
M  V30 23 1 22 24
M  V30 24 2 23 25
M  V30 25 2 24 26
M  V30 26 1 11 13
M  V30 27 2 16 17
M  V30 28 1 25 26
M  V30 END BOND
M  V30 BEGIN COLLECTION
M  V30 MDLV30/STEABS ATOMS=(1 3)
M  V30 END COLLECTION
M  V30 END CTAB
M  END
>  <Column 1>
279

>  <Column 2>
PandemicResponseBox - Plate D

>  <Column 3>
G06

>  <Column 4>
MMV003820

>  <Column 5>
10 mM

>  <Column 6>
ANTIVIRALS

>  <Column 7>


>  <Column 8>
None

>  <Column 9>
Seliciclib

>  <Column 10>
OC[C@H](NC2=NC(=C1N=C[N](C1=N2)C(C)C)NCC3=CC=CC=C3)CC

>  <Column 11>
CHEMBL14762

>  <Column 12>


>  <Column 13>
354.4

>  <Column 14>
C19H26N6O

>  <Tox-Glu>
ATCTOX

>  <Column 15>


>  <Column 16>
71 

>  <Column 17>
69 

>  <Column 18>
22 

>  <Column 19>


>  <Tox-Gal>
CTOXGAL

>  <Column 20>


>  <Column 21>
81 

>  <Column 22>
96 

>  <Column 23>
42 

>  <Column 24>


>  <Column 25>


>  <PAMPA>
PAMPA

>  <Column 26>
357

>  <Column 27>


>  <Column 28>


>  <Mouse>
ATMETMOU

>  <Column 29>
410

>  <Column 30>


$$$$
Compound 281
Actelion Java MolfileCreator 2.0

  0  0  0  0  0  0              0 V3000
M  V30 BEGIN CTAB
M  V30 COUNTS 68 71 0 0 0
M  V30 BEGIN ATOM
M  V30 1 O 6.1668 -8.7985 0.0 0
M  V30 2 C 7.0142 -8.2676 0.0 0
M  V30 3 N 6.578 -7.3677 0.0 0
M  V30 4 C 7.6337 -9.0526 0.0 0
M  V30 5 C 6.3455 -6.3951 0.0 0
M  V30 6 C 5.852 -8.0554 0.0 0
M  V30 7 O 6.8958 -9.7275 0.0 0
M  V30 8 C 8.4811 -9.8536 0.0 0
M  V30 9 C 6.3274 -5.3953 0.0 0
M  V30 10 C 5.3869 -6.1103 0.0 0
M  V30 11 C 4.8935 -7.7705 0.0 0
M  V30 12 O 9.4679 -9.6918 0.0 0
M  V30 13 O 7.5066 -10.0779 0.0 0
M  V30 14 C 8.1278 -10.7891 0.0 0
M  V30 15 O 5.3315 -5.3051 0.0 0
M  V30 16 O 6.5247 -4.415 0.0 0
M  V30 17 C 4.6609 -6.798 0.0 0
M  V30 18 C 10.1015 -10.4655 0.0 0
M  V30 19 C 8.7613 -11.5628 0.0 0
M  V30 20 C 7.141 -10.9509 0.0 0
M  V30 21 C 6.9282 -3.5 0.0 0
M  V30 22 C 11.2668 -10.4247 0.0 0
M  V30 23 C 9.7482 -11.401 0.0 0
M  V30 24 C 6.0621 -3.0 0.0 0
M  V30 25 C 7.5189 -2.6931 0.0 0
M  V30 26 C 12.2506 -10.2451 0.0 0
M  V30 27 C 6.0621 -1.9999 0.0 0
M  V30 28 C 5.1961 -3.5 0.0 0
M  V30 29 C 8.2692 -2.032 0.0 0
M  V30 30 O 12.5354 -11.2037 0.0 0
M  V30 31 C 13.1727 -9.8583 0.0 0
M  V30 32 C 5.1961 -1.4999 0.0 0
M  V30 33 O 7.6932 -1.2146 0.0 0
M  V30 34 C 9.1441 -1.5477 0.0 0
M  V30 35 C 11.8477 -11.9297 0.0 0
M  V30 36 C 13.8472 -9.12 0.0 0
M  V30 37 C 13.7487 -10.6757 0.0 0
M  V30 38 C 5.1961 -0.5 0.0 0
M  V30 39 C 4.3301 -1.9999 0.0 0
M  V30 40 C 10.1415 -1.4756 0.0 0
M  V30 41 C 8.8592 -0.5892 0.0 0
M  V30 42 C 14.6646 -8.5439 0.0 0
M  V30 43 C 4.3301 0.0 0.0 0
M  V30 44 C 3.4641 -1.5 0.0 0
M  V30 45 C 11.1001 -1.1907 0.0 0
M  V30 46 C 14.9667 -7.5907 0.0 0
M  V30 47 O 4.3301 1.0 0.0 0
M  V30 48 C 3.4641 -0.5 0.0 0
M  V30 49 C 12.0897 -1.3346 0.0 0
M  V30 50 C 11.0279 -0.1933 0.0 0
M  V30 51 C 15.4667 -6.7247 0.0 0
M  V30 52 C 3.4641 1.5 0.0 0
M  V30 53 O 2.598 0.0 0.0 0
M  V30 54 O 12.3397 -0.3664 0.0 0
M  V30 55 C 13.0252 -1.6879 0.0 0
M  V30 56 C 15.3407 -5.7326 0.0 0
M  V30 57 C 1.732 -0.5 0.0 0
M  V30 58 O 13.4775 -0.7961 0.0 0
M  V30 59 C 13.8629 -2.2341 0.0 0
M  V30 60 C 15.4308 -4.7367 0.0 0
M  V30 61 C 0.866 0.0 0.0 0
M  V30 62 C 12.9314 0.0415 0.0 0
M  V30 63 O 14.4964 -1.4604 0.0 0
M  V30 64 C 14.5635 -2.9476 0.0 0
M  V30 65 C 15.0945 -3.795 0.0 0
M  V30 66 C 16.4229 -4.6107 0.0 0
M  V30 67 O 0.0 -0.5 0.0 0
M  V30 68 C 15.3486 -2.3281 0.0 0
M  V30 END ATOM
M  V30 BEGIN BOND
M  V30 1 2 1 2
M  V30 2 1 2 3
M  V30 3 1 2 4
M  V30 4 1 3 5
M  V30 5 1 3 6
M  V30 6 2 4 7
M  V30 7 1 4 8
M  V30 8 1 5 9
M  V30 9 1 5 10
M  V30 10 1 6 11
M  V30 11 1 8 12
M  V30 12 1 8 13
M  V30 13 1 8 14
M  V30 14 2 9 15
M  V30 15 1 9 16
M  V30 16 1 10 17
M  V30 17 1 12 18
M  V30 18 1 14 19
M  V30 19 1 14 20
M  V30 20 1 16 21
M  V30 21 1 18 22
M  V30 22 1 18 23
M  V30 23 1 21 24
M  V30 24 1 21 25
M  V30 25 1 22 26
M  V30 26 1 24 27
M  V30 27 1 24 28
M  V30 28 1 25 29
M  V30 29 1 26 30
M  V30 30 1 26 31
M  V30 31 1 27 32
M  V30 32 2 29 33
M  V30 33 1 29 34
M  V30 34 1 30 35
M  V30 35 2 31 36
M  V30 36 1 31 37
M  V30 37 1 32 38
M  V30 38 1 32 39
M  V30 39 1 34 40
M  V30 40 1 34 41
M  V30 41 1 36 42
M  V30 42 1 38 43
M  V30 43 1 39 44
M  V30 44 2 40 45
M  V30 45 2 42 46
M  V30 46 1 43 47
M  V30 47 1 43 48
M  V30 48 1 45 49
M  V30 49 1 45 50
M  V30 50 1 46 51
M  V30 51 1 47 52
M  V30 52 1 48 53
M  V30 53 1 49 54
M  V30 54 1 49 55
M  V30 55 2 51 56
M  V30 56 1 53 57
M  V30 57 1 55 58
M  V30 58 1 55 59
M  V30 59 1 56 60
M  V30 60 1 57 61
M  V30 61 1 58 62
M  V30 62 2 59 63
M  V30 63 1 59 64
M  V30 64 1 60 65
M  V30 65 1 60 66
M  V30 66 1 61 67
M  V30 67 1 64 68
M  V30 68 1 11 17
M  V30 69 1 19 23
M  V30 70 1 44 48
M  V30 71 1 64 65
M  V30 END BOND
M  V30 END CTAB
M  END
>  <Column 1>
280

>  <Column 2>
PandemicResponseBox - Plate D

>  <Column 3>
H06

>  <Column 4>
MMV639951

>  <Column 5>
10 mM

>  <Column 6>
ANTIVIRALS

>  <Column 7>


>  <Column 8>
None

>  <Column 9>
Everolimus

>  <Column 10>
O=C2N4C(C(=O)OC(C(CC1CC(OC)C(OCCO)CC1)C)CC(=O)C(\C=C(\C(O)C(OC)C(=O)C(C)CC(/C=C/C=C/C=C(/C(CC3OC(C2=O)(O)C(CC3)C)OC)C)C)C)C)CCCC4

>  <Column 11>
CHEMBL1908360

>  <Column 12>
Journal of Virology (2018), 92(19), e01138/1-e01138/16;Transplantation Proceedings (2017), 49(8), 1947-1955

>  <Column 13>
958.2

>  <Column 14>
C53H83NO14

>  <Tox-Glu>
ATCTOX

>  <Column 15>


>  <Column 16>
92 

>  <Column 17>
13 

>  <Column 18>
1 

>  <Column 19>


>  <Tox-Gal>
CTOXGAL

>  <Column 20>


>  <Column 21>
94 

>  <Column 22>
1 

>  <Column 23>
1 

>  <Column 24>


>  <Column 25>


>  <PAMPA>
PAMPA

>  <Column 26>
250

>  <Column 27>


>  <Column 28>


>  <Mouse>
ATMETMOU

>  <Column 29>
43

>  <Column 30>
Low sensitivity

$$$$
Compound 282
Actelion Java MolfileCreator 2.0

  0  0  0  0  0  0              0 V3000
M  V30 BEGIN CTAB
M  V30 COUNTS 43 45 0 0 0
M  V30 BEGIN ATOM
M  V30 1 F 6.4951 4.5 0.0 0
M  V30 2 C 7.7942 3.75 0.0 0
M  V30 3 C 9.0932 4.5 0.0 0
M  V30 4 C 7.7942 2.25 0.0 0
M  V30 5 C 10.3923 3.75 0.0 0
M  V30 6 C 9.0932 1.5 0.0 0
M  V30 7 C 10.3923 2.25 0.0 0
M  V30 8 C 11.6913 1.5 0.0 0
M  V30 9 C 11.6913 0.0 0.0 0 CFG=1
M  V30 10 C 10.3923 -0.75 0.0 0
M  V30 11 C 12.9903 -0.75 0.0 0
M  V30 12 O 10.3923 -2.25 0.0 0
M  V30 13 N 9.0932 0.0 0.0 0
M  V30 14 C 14.2894 0.0 0.0 0
M  V30 15 C 7.7942 -0.75 0.0 0 CFG=2
M  V30 16 O 14.2894 1.5 0.0 0
M  V30 17 C 15.5884 -0.75 0.0 0 CFG=1
M  V30 18 C 6.4951 0.0 0.0 0
M  V30 19 C 7.7942 -2.25 0.0 0
M  V30 20 N 15.5884 -2.25 0.0 0
M  V30 21 C 16.8874 0.0 0.0 0
M  V30 22 C 5.1961 -0.75 0.0 0
M  V30 23 C 6.4951 -2.9999 0.0 0 CFG=1
M  V30 24 C 16.8874 -3.0 0.0 0
M  V30 25 C 16.8874 1.4999 0.0 0
M  V30 26 C 18.1865 -0.75 0.0 0
M  V30 27 C 3.8971 0.0 0.0 0
M  V30 28 C 6.3383 -4.4917 0.0 0
M  V30 29 C 5.1248 -2.3898 0.0 0
M  V30 30 O 18.1865 -2.25 0.0 0
M  V30 31 C 16.8874 -4.5 0.0 0
M  V30 32 O 3.8971 1.5 0.0 0
M  V30 33 O 2.598 -0.75 0.0 0
M  V30 34 O 7.4531 -5.4954 0.0 0
M  V30 35 N 4.8711 -4.8036 0.0 0
M  V30 36 C 4.1211 -3.5046 0.0 0
M  V30 37 N 15.6739 -5.3816 0.0 0
M  V30 38 C 18.101 -5.3816 0.0 0
M  V30 39 C 1.299 0.0 0.0 0
M  V30 40 O 16.1374 -6.8082 0.0 0
M  V30 41 C 17.6374 -6.8082 0.0 0
M  V30 42 C 0.0 -0.75 0.0 0
M  V30 43 C 18.5191 -8.0217 0.0 0
M  V30 END ATOM
M  V30 BEGIN BOND
M  V30 1 1 1 2
M  V30 2 2 2 3
M  V30 3 1 2 4
M  V30 4 1 3 5
M  V30 5 2 4 6
M  V30 6 2 5 7
M  V30 7 1 7 8
M  V30 8 1 9 8 CFG=3
M  V30 9 1 9 10
M  V30 10 1 9 11
M  V30 11 2 10 12
M  V30 12 1 10 13
M  V30 13 1 11 14
M  V30 14 1 15 13 CFG=1
M  V30 15 2 14 16
M  V30 16 1 17 14
M  V30 17 1 15 18
M  V30 18 1 15 19
M  V30 19 1 17 20 CFG=3
M  V30 20 1 17 21
M  V30 21 2 18 22
M  V30 22 1 23 19 CFG=1
M  V30 23 1 20 24
M  V30 24 1 21 25
M  V30 25 1 21 26
M  V30 26 1 22 27
M  V30 27 1 23 28
M  V30 28 1 23 29
M  V30 29 2 24 30
M  V30 30 1 24 31
M  V30 31 2 27 32
M  V30 32 1 27 33
M  V30 33 2 28 34
M  V30 34 1 28 35
M  V30 35 1 29 36
M  V30 36 2 31 37
M  V30 37 1 31 38
M  V30 38 1 33 39
M  V30 39 1 37 40
M  V30 40 2 38 41
M  V30 41 1 39 42
M  V30 42 1 41 43
M  V30 43 1 6 7
M  V30 44 1 35 36
M  V30 45 1 40 41
M  V30 END BOND
M  V30 BEGIN COLLECTION
M  V30 MDLV30/STEABS ATOMS=(4 9 15 17 23)
M  V30 END COLLECTION
M  V30 END CTAB
M  END
>  <Column 1>
281

>  <Column 2>
PandemicResponseBox - Plate D

>  <Column 3>
A07

>  <Column 4>
MMV1580491

>  <Column 5>
10 mM

>  <Column 6>
ANTIVIRALS

>  <Column 7>


>  <Column 8>
None

>  <Column 9>
Rupintrivir

>  <Column 10>
FC3=CC=C(C[C@@H](C(=O)N[C@H](\C=C\C(=O)OCC)C[C@H]1C(=O)NCC1)CC(=O)[C@@H](NC(=O)C2=NOC(=C2)C)C(C)C)C=C3

>  <Column 11>
CHEMBL20210

>  <Column 12>


>  <Column 13>
598.7

>  <Column 14>
C31 H39 F N4 O7

>  <Tox-Glu>
ATCTOX

>  <Column 15>


>  <Column 16>
103 

>  <Column 17>
107 

>  <Column 18>
97 

>  <Column 19>


>  <Tox-Gal>
CTOXGAL

>  <Column 20>


>  <Column 21>
101 

>  <Column 22>
100 

>  <Column 23>
98 

>  <Column 24>


>  <Column 25>


>  <PAMPA>
PAMPA

>  <Column 26>
204

>  <Column 27>


>  <Column 28>


>  <Mouse>
ATMETMOU

>  <Column 29>
>768

>  <Column 30>


$$$$
Compound 283
Actelion Java MolfileCreator 2.0

  0  0  0  0  0  0              0 V3000
M  V30 BEGIN CTAB
M  V30 COUNTS 30 33 0 0 0
M  V30 BEGIN ATOM
M  V30 1 O 8.0953 -2.1806 0.0 0
M  V30 2 N 7.6885 -1.2671 0.0 0
M  V30 3 C 7.3521 -2.8497 0.0 0
M  V30 4 C 6.694 -1.3716 0.0 0
M  V30 5 N 6.4861 -2.3497 0.0 0
M  V30 6 C 7.4566 -3.8443 0.0 0
M  V30 7 C 6.0249 -0.6284 0.0 0
M  V30 8 C 6.6476 -4.432 0.0 0
M  V30 9 C 8.3702 -4.251 0.0 0
M  V30 10 C 5.0467 -0.8364 0.0 0
M  V30 11 C 6.3339 0.3225 0.0 0
M  V30 12 C 6.7522 -5.4266 0.0 0
M  V30 13 C 8.4747 -5.2455 0.0 0
M  V30 14 C 4.3776 -0.0932 0.0 0
M  V30 15 C 4.5467 -1.7024 0.0 0
M  V30 16 C 5.6648 1.0657 0.0 0
M  V30 17 C 5.9431 -6.0144 0.0 0
M  V30 18 C 7.6657 -5.8333 0.0 0
M  V30 19 C 4.6866 0.8577 0.0 0
M  V30 20 C 3.4641 -0.5 0.0 0 CFG=2
M  V30 21 C 3.5686 -1.4945 0.0 0
M  V30 22 N 5.1341 -6.6021 0.0 0
M  V30 23 O 7.7702 -6.8278 0.0 0
M  V30 24 N 2.598 0.0 0.0 0
M  V30 25 C 6.9612 -7.4156 0.0 0
M  V30 26 C 1.732 -0.5 0.0 0
M  V30 27 C 6.0477 -7.0089 0.0 0
M  V30 28 C 7.0657 -8.4101 0.0 0
M  V30 29 C 0.866 0.0 0.0 0
M  V30 30 O 0.0 -0.5 0.0 0
M  V30 END ATOM
M  V30 BEGIN BOND
M  V30 1 1 1 2
M  V30 2 1 1 3
M  V30 3 2 2 4
M  V30 4 2 3 5
M  V30 5 1 3 6
M  V30 6 1 4 7
M  V30 7 2 6 8
M  V30 8 1 6 9
M  V30 9 2 7 10
M  V30 10 1 7 11
M  V30 11 1 8 12
M  V30 12 2 9 13
M  V30 13 1 10 14
M  V30 14 1 10 15
M  V30 15 2 11 16
M  V30 16 1 12 17
M  V30 17 2 12 18
M  V30 18 2 14 19
M  V30 19 1 20 14
M  V30 20 1 15 21
M  V30 21 3 17 22
M  V30 22 1 18 23
M  V30 23 1 20 24 CFG=3
M  V30 24 1 23 25
M  V30 25 1 24 26
M  V30 26 1 25 27
M  V30 27 1 25 28
M  V30 28 1 26 29
M  V30 29 1 29 30
M  V30 30 1 4 5
M  V30 31 1 13 18
M  V30 32 1 16 19
M  V30 33 1 20 21
M  V30 END BOND
M  V30 BEGIN COLLECTION
M  V30 MDLV30/STEABS ATOMS=(1 20)
M  V30 END COLLECTION
M  V30 END CTAB
M  END
>  <Column 1>
282

>  <Column 2>
PandemicResponseBox - Plate D

>  <Column 3>
B07

>  <Column 4>
MMV1580492

>  <Column 5>
10 mM

>  <Column 6>
ANTIVIRALS

>  <Column 7>


>  <Column 8>
None

>  <Column 9>
Ozanimod

>  <Column 10>
O3N=C(C1=C2C(=CC=C1)[C@@H](NCCO)CC2)N=C3C4=CC(=C(OC(C)C)C=C4)C#N

>  <Column 11>
CHEMBL3707247

>  <Column 12>
WO2011060389A1

>  <Column 13>
404.5

>  <Column 14>
C23 H24 N4 O3

>  <Tox-Glu>
ATCTOX

>  <Column 15>


>  <Column 16>
1 

>  <Column 17>
1 

>  <Column 18>
0 

>  <Column 19>


>  <Tox-Gal>
CTOXGAL

>  <Column 20>


>  <Column 21>
2 

>  <Column 22>
1 

>  <Column 23>
0 

>  <Column 24>


>  <Column 25>


>  <PAMPA>
PAMPA

>  <Column 26>
477

>  <Column 27>


>  <Column 28>


>  <Mouse>
ATMETMOU

>  <Column 29>
14

>  <Column 30>


$$$$
Compound 284
Actelion Java MolfileCreator 2.0

  0  0  0  0  0  0              0 V3000
M  V30 BEGIN CTAB
M  V30 COUNTS 23 26 0 0 0
M  V30 BEGIN ATOM
M  V30 1 Cl 4.025 5.0097 0.0 0
M  V30 2 C 3.4372 4.2007 0.0 0
M  V30 3 C 3.8439 3.2871 0.0 0
M  V30 4 C 2.4427 4.3052 0.0 0
M  V30 5 C 3.2561 2.4781 0.0 0
M  V30 6 C 1.8549 3.4962 0.0 0
M  V30 7 C 2.2616 2.5826 0.0 0
M  V30 8 C 3.4641 1.5 0.0 0
M  V30 9 N 1.8549 1.6691 0.0 0
M  V30 10 C 2.598 1.0 0.0 0
M  V30 11 C 4.3301 1.0 0.0 0
M  V30 12 C 2.598 0.0 0.0 0 CFG=1
M  V30 13 C 4.3301 0.0 0.0 0
M  V30 14 N 1.732 -0.5 0.0 0
M  V30 15 C 3.4641 -0.4999 0.0 0
M  V30 16 C 0.866 0.0 0.0 0
M  V30 17 O 0.866 1.0 0.0 0
M  V30 18 C 0.0 -0.5 0.0 0
M  V30 19 N -0.866 0.0 0.0 0
M  V30 20 C 0.0 -1.4999 0.0 0
M  V30 21 C -1.732 -0.4999 0.0 0
M  V30 22 C -0.866 -1.9999 0.0 0
M  V30 23 C -1.732 -1.4999 0.0 0
M  V30 END ATOM
M  V30 BEGIN BOND
M  V30 1 1 1 2
M  V30 2 2 2 3
M  V30 3 1 2 4
M  V30 4 1 3 5
M  V30 5 2 4 6
M  V30 6 2 5 7
M  V30 7 1 5 8
M  V30 8 1 7 9
M  V30 9 2 8 10
M  V30 10 1 8 11
M  V30 11 1 12 10
M  V30 12 1 11 13
M  V30 13 1 12 14 CFG=3
M  V30 14 1 12 15
M  V30 15 1 14 16
M  V30 16 2 16 17
M  V30 17 1 16 18
M  V30 18 2 18 19
M  V30 19 1 18 20
M  V30 20 1 19 21
M  V30 21 2 20 22
M  V30 22 2 21 23
M  V30 23 1 6 7
M  V30 24 1 9 10
M  V30 25 1 13 15
M  V30 26 1 22 23
M  V30 END BOND
M  V30 BEGIN COLLECTION
M  V30 MDLV30/STERAC1 ATOMS=(1 12)
M  V30 END COLLECTION
M  V30 END CTAB
M  END
>  <Column 1>
283

>  <Column 2>
PandemicResponseBox - Plate D

>  <Column 3>
C07

>  <Column 4>
MMV690621

>  <Column 5>
10 mM

>  <Column 6>
ANTIVIRALS

>  <Column 7>


>  <Column 8>
None

>  <Column 9>


>  <Column 10>
ClC4=CC1=C([NH]C2=C1CCCC2NC(=O)C3=NC=CC=C3)C=C4

>  <Column 11>
NA for racemic

>  <Column 12>
WO�2006118607�A2

>  <Column 13>
325.8

>  <Column 14>
C18 H16 Cl N3 O

>  <Tox-Glu>
ATCTOX

>  <Column 15>


>  <Column 16>
97 

>  <Column 17>
49 

>  <Column 18>
1 

>  <Column 19>


>  <Tox-Gal>
CTOXGAL

>  <Column 20>


>  <Column 21>
94 

>  <Column 22>
1 

>  <Column 23>
0 

>  <Column 24>


>  <Column 25>


>  <PAMPA>
PAMPA

>  <Column 26>
undetected

>  <Column 27>
low sensitivity

>  <Column 28>


>  <Mouse>
ATMETMOU

>  <Column 29>
457

>  <Column 30>


$$$$
Compound 285
Actelion Java MolfileCreator 2.0

  0  0  0  0  0  0              0 V3000
M  V30 BEGIN CTAB
M  V30 COUNTS 37 39 0 0 0
M  V30 BEGIN ATOM
M  V30 1 O 6.0621 1.0 0.0 0
M  V30 2 C 6.9282 1.5 0.0 0
M  V30 3 N 7.7942 1.0 0.0 0
M  V30 4 C 6.9282 2.5 0.0 0
M  V30 5 C 8.6602 1.5 0.0 0
M  V30 6 C 7.7942 0.0 0.0 0 CFG=2
M  V30 7 N 6.0621 3.0 0.0 0
M  V30 8 C 7.7942 3.0 0.0 0
M  V30 9 C 8.6602 2.5 0.0 0
M  V30 10 C 6.9282 -0.5 0.0 0
M  V30 11 C 8.6602 -0.5 0.0 0
M  V30 12 C 6.0621 4.0 0.0 0
M  V30 13 O 6.9282 -1.4999 0.0 0
M  V30 14 N 6.0621 0.0 0.0 0
M  V30 15 C 9.5262 0.0 0.0 0
M  V30 16 O 6.9282 4.5 0.0 0
M  V30 17 C 5.1961 4.4999 0.0 0
M  V30 18 C 5.1961 -0.5 0.0 0 CFG=2
M  V30 19 N 4.2826 4.0932 0.0 0
M  V30 20 C 5.0916 5.4945 0.0 0
M  V30 21 C 4.3301 0.0 0.0 0
M  V30 22 C 5.1961 -1.5 0.0 0
M  V30 23 O 3.6134 4.8364 0.0 0
M  V30 24 C 4.1134 5.7024 0.0 0
M  V30 25 C 3.4641 -0.5 0.0 0
M  V30 26 C 4.3301 -2.0 0.0 0 CFG=1
M  V30 27 C 3.7067 6.6159 0.0 0
M  V30 28 C 2.598 0.0 0.0 0
M  V30 29 C 4.2255 -2.9945 0.0 0
M  V30 30 C 3.4165 -1.5932 0.0 0
M  V30 31 O 2.598 0.9999 0.0 0
M  V30 32 O 1.732 -0.5 0.0 0
M  V30 33 O 4.9687 -3.6636 0.0 0
M  V30 34 N 3.2474 -3.2024 0.0 0
M  V30 35 C 2.7474 -2.3364 0.0 0
M  V30 36 C 0.866 0.0 0.0 0
M  V30 37 C 0.0 -0.5 0.0 0
M  V30 END ATOM
M  V30 BEGIN BOND
M  V30 1 2 1 2
M  V30 2 1 2 3
M  V30 3 1 2 4
M  V30 4 1 3 5
M  V30 5 1 6 3 CFG=1
M  V30 6 1 4 7
M  V30 7 2 4 8
M  V30 8 2 5 9
M  V30 9 1 6 10
M  V30 10 1 6 11
M  V30 11 1 7 12
M  V30 12 2 10 13
M  V30 13 1 10 14
M  V30 14 1 11 15
M  V30 15 2 12 16
M  V30 16 1 12 17
M  V30 17 1 18 14 CFG=1
M  V30 18 2 17 19
M  V30 19 1 17 20
M  V30 20 1 18 21
M  V30 21 1 18 22
M  V30 22 1 19 23
M  V30 23 2 20 24
M  V30 24 2 21 25
M  V30 25 1 26 22 CFG=1
M  V30 26 1 24 27
M  V30 27 1 25 28
M  V30 28 1 26 29
M  V30 29 1 26 30
M  V30 30 2 28 31
M  V30 31 1 28 32
M  V30 32 2 29 33
M  V30 33 1 29 34
M  V30 34 1 30 35
M  V30 35 1 32 36
M  V30 36 1 36 37
M  V30 37 1 8 9
M  V30 38 1 23 24
M  V30 39 1 34 35
M  V30 END BOND
M  V30 BEGIN COLLECTION
M  V30 MDLV30/STEABS ATOMS=(3 6 18 26)
M  V30 END COLLECTION
M  V30 END CTAB
M  END
>  <Column 1>
284

>  <Column 2>
PandemicResponseBox - Plate D

>  <Column 3>
D07

>  <Column 4>
MMV1782112

>  <Column 5>
10 mM

>  <Column 6>
ANTIVIRALS

>  <Column 7>


>  <Column 8>
None

>  <Column 9>


>  <Column 10>
O=[C]1[N](C=CC=C1NC(=O)C2=NOC(=C2)C)[C@H](C(=O)N[C@H](\C=C\C(=O)OCC)C[C@H]3C(=O)NCC3)CC

>  <Column 11>
CHEMBL141816

>  <Column 12>
Journal of Medicinal Chemistry�(2003),�46(21),�4572-4585

>  <Column 13>
513.5

>  <Column 14>
C25 H31 N5 O7

>  <Tox-Glu>
ATCTOX

>  <Column 15>


>  <Column 16>
101 

>  <Column 17>
108 

>  <Column 18>
101 

>  <Column 19>


>  <Tox-Gal>
CTOXGAL

>  <Column 20>


>  <Column 21>
101 

>  <Column 22>
99 

>  <Column 23>
100 

>  <Column 24>


>  <Column 25>


>  <PAMPA>
PAMPA

>  <Column 26>
165

>  <Column 27>


>  <Column 28>


>  <Mouse>
ATMETMOU

>  <Column 29>
60

>  <Column 30>


$$$$
Compound 286
Actelion Java MolfileCreator 2.0

  0  0  0  0  0  0              0 V3000
M  V30 BEGIN CTAB
M  V30 COUNTS 29 32 0 0 0
M  V30 BEGIN ATOM
M  V30 1 O 2.598 1.0 0.0 0
M  V30 2 C 2.598 0.0 0.0 0
M  V30 3 N 1.732 -0.5 0.0 0
M  V30 4 N 3.4641 -0.4999 0.0 0
M  V30 5 C 1.732 -1.5 0.0 0
M  V30 6 C 0.866 0.0 0.0 0
M  V30 7 C 3.4641 -1.4999 0.0 0
M  V30 8 C 2.598 -1.9999 0.0 0
M  V30 9 C 0.0 -0.5 0.0 0
M  V30 10 O 4.3301 -1.9999 0.0 0
M  V30 11 N 2.598 -2.9999 0.0 0
M  V30 12 C -0.866 0.0 0.0 0
M  V30 13 C 0.0 -1.4999 0.0 0
M  V30 14 C 3.4641 -3.4999 0.0 0
M  V30 15 C -1.732 -0.4999 0.0 0
M  V30 16 C -0.866 -1.9999 0.0 0
M  V30 17 C 3.4641 -4.4999 0.0 0
M  V30 18 C 4.3301 -2.9999 0.0 0
M  V30 19 O -2.598 0.0 0.0 0
M  V30 20 C -1.732 -1.4999 0.0 0
M  V30 21 C 4.3301 -4.9999 0.0 0
M  V30 22 C 5.1961 -3.4999 0.0 0
M  V30 23 C -3.4641 -0.4999 0.0 0
M  V30 24 C 5.1961 -4.4999 0.0 0
M  V30 25 C -4.3301 0.0 0.0 0
M  V30 26 C -3.4641 -1.4999 0.0 0
M  V30 27 C -5.1961 -0.4999 0.0 0
M  V30 28 C -4.3301 -1.9999 0.0 0
M  V30 29 C -5.1961 -1.4999 0.0 0
M  V30 END ATOM
M  V30 BEGIN BOND
M  V30 1 2 1 2
M  V30 2 1 2 3
M  V30 3 1 2 4
M  V30 4 1 3 5
M  V30 5 1 3 6
M  V30 6 1 4 7
M  V30 7 2 5 8
M  V30 8 1 6 9
M  V30 9 2 7 10
M  V30 10 1 8 11
M  V30 11 2 9 12
M  V30 12 1 9 13
M  V30 13 1 11 14
M  V30 14 1 12 15
M  V30 15 2 13 16
M  V30 16 2 14 17
M  V30 17 1 14 18
M  V30 18 1 15 19
M  V30 19 2 15 20
M  V30 20 1 17 21
M  V30 21 2 18 22
M  V30 22 1 19 23
M  V30 23 2 21 24
M  V30 24 2 23 25
M  V30 25 1 23 26
M  V30 26 1 25 27
M  V30 27 2 26 28
M  V30 28 2 27 29
M  V30 29 1 7 8
M  V30 30 1 16 20
M  V30 31 1 22 24
M  V30 32 1 28 29
M  V30 END BOND
M  V30 END CTAB
M  END
>  <Column 1>
285

>  <Column 2>
PandemicResponseBox - Plate D

>  <Column 3>
E07

>  <Column 4>
MMV1782107

>  <Column 5>
10 mM

>  <Column 6>
ANTIVIRALS

>  <Column 7>


>  <Column 8>
None

>  <Column 9>


>  <Column 10>
O=[C]2[N](C=C(NC1=CC=CC=C1)[C]([NH]2)=O)CC3=CC(=CC=C3)OC4=CC=CC=C4

>  <Column 11>
CHEMBL1290407

>  <Column 12>


>  <Column 13>
385.4

>  <Column 14>
C23 H19 N3 O3

>  <Tox-Glu>
ATCTOX

>  <Column 15>


>  <Column 16>
96 

>  <Column 17>
84 

>  <Column 18>
55 

>  <Column 19>


>  <Tox-Gal>
CTOXGAL

>  <Column 20>


>  <Column 21>
98 

>  <Column 22>
85 

>  <Column 23>
63 

>  <Column 24>


>  <Column 25>


>  <PAMPA>
PAMPA

>  <Column 26>
undetected

>  <Column 27>
low sensitivity

>  <Column 28>


>  <Mouse>
ATMETMOU

>  <Column 29>
116

>  <Column 30>
Low sensitivity

$$$$
Compound 287
Actelion Java MolfileCreator 2.0

  0  0  0  0  0  0              0 V3000
M  V30 BEGIN CTAB
M  V30 COUNTS 22 23 0 0 0
M  V30 BEGIN ATOM
M  V30 1 O 7.7942 -2.25 0.0 0
M  V30 2 C 7.7942 -0.75 0.0 0
M  V30 3 N 9.0932 0.0 0.0 0
M  V30 4 C 6.4951 0.0 0.0 0
M  V30 5 C 9.0932 1.4999 0.0 0
M  V30 6 C 6.4951 1.4999 0.0 0
M  V30 7 C 5.1961 -0.75 0.0 0
M  V30 8 C 7.7942 2.2499 0.0 0
M  V30 9 C 10.3923 2.2499 0.0 0
M  V30 10 C 3.8971 0.0 0.0 0
M  V30 11 C 7.7942 3.75 0.0 0
M  V30 12 C 2.598 -0.75 0.0 0
M  V30 13 C 6.4951 4.5 0.0 0
M  V30 14 O 2.598 -2.25 0.0 0
M  V30 15 N 1.299 0.0 0.0 0
M  V30 16 C 0.0 -0.75 0.0 0
M  V30 17 C -1.299 0.0 0.0 0
M  V30 18 C 0.0 -2.2499 0.0 0
M  V30 19 O -1.299 1.5 0.0 0
M  V30 20 C -2.598 -0.7499 0.0 0
M  V30 21 C -1.299 -2.9999 0.0 0
M  V30 22 C -2.598 -2.2499 0.0 0
M  V30 END ATOM
M  V30 BEGIN BOND
M  V30 1 2 1 2
M  V30 2 1 2 3
M  V30 3 1 2 4
M  V30 4 1 3 5
M  V30 5 2 4 6
M  V30 6 1 4 7
M  V30 7 2 5 8
M  V30 8 1 5 9
M  V30 9 1 7 10
M  V30 10 1 8 11
M  V30 11 1 10 12
M  V30 12 1 11 13
M  V30 13 2 12 14
M  V30 14 1 12 15
M  V30 15 1 15 16
M  V30 16 2 16 17
M  V30 17 1 16 18
M  V30 18 1 17 19
M  V30 19 1 17 20
M  V30 20 2 18 21
M  V30 21 2 20 22
M  V30 22 1 6 8
M  V30 23 1 21 22
M  V30 END BOND
M  V30 END CTAB
M  END
>  <Column 1>
286

>  <Column 2>
PandemicResponseBox - Plate D

>  <Column 3>
F07

>  <Column 4>
MMV1782106

>  <Column 5>
10 mM

>  <Column 6>
ANTIVIRALS

>  <Column 7>


>  <Column 8>
None

>  <Column 9>


>  <Column 10>
O=[C]1[NH]C(=C(CC)C=C1CCC(=O)NC2=C(O)C=CC=C2)C

>  <Column 11>
CHEMBL172773

>  <Column 12>


>  <Column 13>
300.4

>  <Column 14>
C17 H20 N2 O3

>  <Tox-Glu>
ATCTOX

>  <Column 15>


>  <Column 16>
105 

>  <Column 17>
112 

>  <Column 18>
107 

>  <Column 19>


>  <Tox-Gal>
CTOXGAL

>  <Column 20>


>  <Column 21>
102 

>  <Column 22>
103 

>  <Column 23>
105 

>  <Column 24>


>  <Column 25>


>  <PAMPA>
PAMPA

>  <Column 26>
202

>  <Column 27>


>  <Column 28>


>  <Mouse>
ATMETMOU

>  <Column 29>
68

>  <Column 30>


$$$$
Compound 288
Actelion Java MolfileCreator 2.0

  0  0  0  0  0  0              0 V3000
M  V30 BEGIN CTAB
M  V30 COUNTS 19 21 0 0 0
M  V30 BEGIN ATOM
M  V30 1 Br 4.3301 4.0 0.0 0
M  V30 2 C 4.3301 3.0 0.0 0
M  V30 3 C 3.4641 2.5 0.0 0
M  V30 4 C 5.1961 2.5 0.0 0
M  V30 5 C 3.4641 1.5 0.0 0
M  V30 6 C 5.1961 1.5 0.0 0
M  V30 7 C 4.3301 1.0 0.0 0
M  V30 8 C 2.598 0.9999 0.0 0
M  V30 9 O 4.3301 0.0 0.0 0
M  V30 10 C 2.598 0.0 0.0 0
M  V30 11 C 3.4641 -0.4999 0.0 0
M  V30 12 C 1.732 -0.5 0.0 0
M  V30 13 O 3.4641 -1.5 0.0 0
M  V30 14 S 0.866 0.0 0.0 0
M  V30 15 C 0.0 -0.5 0.0 0
M  V30 16 N -0.9135 -0.0932 0.0 0
M  V30 17 N -0.1045 -1.4945 0.0 0
M  V30 18 C -1.5826 -0.8364 0.0 0
M  V30 19 C -1.0826 -1.7024 0.0 0
M  V30 END ATOM
M  V30 BEGIN BOND
M  V30 1 1 1 2
M  V30 2 2 2 3
M  V30 3 1 2 4
M  V30 4 1 3 5
M  V30 5 2 4 6
M  V30 6 2 5 7
M  V30 7 1 5 8
M  V30 8 1 7 9
M  V30 9 2 8 10
M  V30 10 1 9 11
M  V30 11 1 10 12
M  V30 12 2 11 13
M  V30 13 1 12 14
M  V30 14 1 14 15
M  V30 15 2 15 16
M  V30 16 1 15 17
M  V30 17 1 16 18
M  V30 18 1 17 19
M  V30 19 1 6 7
M  V30 20 1 10 11
M  V30 21 2 18 19
M  V30 END BOND
M  V30 END CTAB
M  END
>  <Column 1>
287

>  <Column 2>
PandemicResponseBox - Plate D

>  <Column 3>
G07

>  <Column 4>
MMV1782105

>  <Column 5>
10 mM

>  <Column 6>
ANTIVIRALS

>  <Column 7>


>  <Column 8>
None

>  <Column 9>


>  <Column 10>
BrC3=CC1=C(O[C](=O)C(=C1)CSC2=NC=C[NH]2)C=C3

>  <Column 11>
NA

>  <Column 12>
Molecules�(2016),�21(2),�228/1-228/17.�

>  <Column 13>
337.2

>  <Column 14>
C13 H9 Br N2 O2 S

>  <Tox-Glu>
ATCTOX

>  <Column 15>


>  <Column 16>
99 

>  <Column 17>
74 

>  <Column 18>
7 

>  <Column 19>


>  <Tox-Gal>
CTOXGAL

>  <Column 20>


>  <Column 21>
107 

>  <Column 22>
85 

>  <Column 23>
1 

>  <Column 24>


>  <Column 25>


>  <PAMPA>
PAMPA

>  <Column 26>
281

>  <Column 27>


>  <Column 28>


>  <Mouse>
ATMETMOU

>  <Column 29>
216

>  <Column 30>


$$$$
Compound 289
Actelion Java MolfileCreator 2.0

  0  0  0  0  0  0              0 V3000
M  V30 BEGIN CTAB
M  V30 COUNTS 19 20 0 0 0
M  V30 BEGIN ATOM
M  V30 1 O 1.299 -2.9999 0.0 0
M  V30 2 C 2.598 -2.2499 0.0 0
M  V30 3 N 3.8971 -3.0 0.0 0
M  V30 4 C 2.598 -0.75 0.0 0
M  V30 5 C 5.1961 -2.25 0.0 0
M  V30 6 C 3.8971 -4.5 0.0 0 CFG=2
M  V30 7 N 3.8971 0.0 0.0 0
M  V30 8 C 1.299 0.0 0.0 0
M  V30 9 C 5.1961 -0.75 0.0 0
M  V30 10 O 2.6835 -5.3816 0.0 0
M  V30 11 C 5.1106 -5.3816 0.0 0 CFG=2
M  V30 12 O 1.299 1.5 0.0 0
M  V30 13 N 0.0 -0.75 0.0 0
M  V30 14 C 3.1471 -6.8082 0.0 0 CFG=1
M  V30 15 O 6.5372 -4.9181 0.0 0
M  V30 16 C 4.6471 -6.8082 0.0 0 CFG=1
M  V30 17 C 2.2654 -8.0217 0.0 0
M  V30 18 O 5.5287 -8.0217 0.0 0
M  V30 19 O 2.8755 -9.3921 0.0 0
M  V30 END ATOM
M  V30 BEGIN BOND
M  V30 1 2 1 2
M  V30 2 1 2 3
M  V30 3 1 2 4
M  V30 4 1 3 5
M  V30 5 1 6 3 CFG=1
M  V30 6 2 4 7
M  V30 7 1 4 8
M  V30 8 2 5 9
M  V30 9 1 6 10
M  V30 10 1 11 6
M  V30 11 2 8 12
M  V30 12 1 8 13
M  V30 13 1 14 10
M  V30 14 1 11 15 CFG=3
M  V30 15 1 16 11
M  V30 16 1 14 17 CFG=1
M  V30 17 1 16 18 CFG=3
M  V30 18 1 17 19
M  V30 19 1 7 9
M  V30 20 1 14 16
M  V30 END BOND
M  V30 BEGIN COLLECTION
M  V30 MDLV30/STEABS ATOMS=(4 6 11 14 16)
M  V30 END COLLECTION
M  V30 END CTAB
M  END
>  <Column 1>
288

>  <Column 2>
PandemicResponseBox - Plate D

>  <Column 3>
H07

>  <Column 4>
MMV1782104

>  <Column 5>
10 mM

>  <Column 6>
ANTIVIRALS

>  <Column 7>


>  <Column 8>
None

>  <Column 9>


>  <Column 10>
O=[C]1[N](C=CN=C1C(=O)N)[C@@H]2O[C@H](CO)[C@H]([C@H]2O)O

>  <Column 11>
CHEMBL261459

>  <Column 12>


>  <Column 13>
271.2

>  <Column 14>
C10 H13 N3 O6

>  <Tox-Glu>
ATCTOX

>  <Column 15>


>  <Column 16>
95 

>  <Column 17>
98 

>  <Column 18>
87 

>  <Column 19>


>  <Tox-Gal>
CTOXGAL

>  <Column 20>


>  <Column 21>
99 

>  <Column 22>
99 

>  <Column 23>
95 

>  <Column 24>


>  <Column 25>


>  <PAMPA>
PAMPA

>  <Column 26>
<3

>  <Column 27>


>  <Column 28>


>  <Mouse>
ATMETMOU

>  <Column 29>


>  <Column 30>
Not determined; Low sensitivity

$$$$
Compound 290
Actelion Java MolfileCreator 2.0

  0  0  0  0  0  0              0 V3000
M  V30 BEGIN CTAB
M  V30 COUNTS 28 30 0 0 0
M  V30 BEGIN ATOM
M  V30 1 O 4.5575 -2.1636 0.0 0
M  V30 2 C 5.3006 -1.4945 0.0 0
M  V30 3 N 6.2788 -1.7024 0.0 0
M  V30 4 N 5.1961 -0.5 0.0 0
M  V30 5 C 6.6855 -2.6159 0.0 0
M  V30 6 C 6.7788 -0.8364 0.0 0
M  V30 7 C 6.1096 -0.0932 0.0 0
M  V30 8 C 4.3301 0.0 0.0 0
M  V30 9 C 6.0977 -3.4249 0.0 0
M  V30 10 C 7.68 -2.7205 0.0 0
M  V30 11 C 3.4641 -0.5 0.0 0
M  V30 12 C 6.5045 -4.3385 0.0 0
M  V30 13 C 8.0868 -3.634 0.0 0
M  V30 14 C 2.598 0.0 0.0 0
M  V30 15 N 7.499 -4.443 0.0 0
M  V30 16 C 1.732 -0.5 0.0 0
M  V30 17 O 0.866 0.0 0.0 0
M  V30 18 C 0.0 -0.5 0.0 0
M  V30 19 C -0.866 0.0 0.0 0
M  V30 20 C 0.0 -1.4999 0.0 0
M  V30 21 C -1.732 -0.4999 0.0 0
M  V30 22 C -0.866 -1.9999 0.0 0
M  V30 23 C -1.732 -1.4999 0.0 0
M  V30 24 C -2.598 -1.9999 0.0 0
M  V30 25 N -3.4641 -1.4999 0.0 0
M  V30 26 O -4.3301 -1.9999 0.0 0
M  V30 27 C -5.1961 -1.4999 0.0 0
M  V30 28 C -6.0621 -1.9999 0.0 0
M  V30 END ATOM
M  V30 BEGIN BOND
M  V30 1 2 1 2
M  V30 2 1 2 3
M  V30 3 1 2 4
M  V30 4 1 3 5
M  V30 5 1 3 6
M  V30 6 1 4 7
M  V30 7 1 4 8
M  V30 8 2 5 9
M  V30 9 1 5 10
M  V30 10 1 8 11
M  V30 11 1 9 12
M  V30 12 2 10 13
M  V30 13 1 11 14
M  V30 14 2 12 15
M  V30 15 1 14 16
M  V30 16 1 16 17
M  V30 17 1 17 18
M  V30 18 2 18 19
M  V30 19 1 18 20
M  V30 20 1 19 21
M  V30 21 2 20 22
M  V30 22 2 21 23
M  V30 23 1 23 24
M  V30 24 2 24 25
M  V30 25 1 25 26
M  V30 26 1 26 27
M  V30 27 1 27 28
M  V30 28 1 6 7
M  V30 29 1 13 15
M  V30 30 1 22 23
M  V30 END BOND
M  V30 END CTAB
M  END
>  <Column 1>
289

>  <Column 2>
PandemicResponseBox - Plate D

>  <Column 3>
A08

>  <Column 4>
MMV1782101

>  <Column 5>
10 mM

>  <Column 6>
ANTIVIRALS

>  <Column 7>


>  <Column 8>
None

>  <Column 9>


>  <Column 10>
O=C2N(C1=CC=NC=C1)CCN2CCCCOC3=CC=C(\C=N\OCC)C=C3

>  <Column 11>
NA

>  <Column 12>
�US�20050267164

>  <Column 13>
382.5

>  <Column 14>
C21 H26 N4 O3

>  <Tox-Glu>
ATCTOX

>  <Column 15>


>  <Column 16>
96 

>  <Column 17>
77 

>  <Column 18>
34 

>  <Column 19>
Large variations@100uM

>  <Tox-Gal>
CTOXGAL

>  <Column 20>


>  <Column 21>
62 

>  <Column 22>
1 

>  <Column 23>
1 

>  <Column 24>


>  <Column 25>


>  <PAMPA>
PAMPA

>  <Column 26>
570

>  <Column 27>


>  <Column 28>


>  <Mouse>
ATMETMOU

>  <Column 29>
123

>  <Column 30>


$$$$
Compound 291
Actelion Java MolfileCreator 2.0

  0  0  0  0  0  0              0 V3000
M  V30 BEGIN CTAB
M  V30 COUNTS 27 30 0 0 0
M  V30 BEGIN ATOM
M  V30 1 O 8.2788 4.4344 0.0 0
M  V30 2 C 7.7788 3.5684 0.0 0
M  V30 3 N 6.7788 3.5684 0.0 0
M  V30 4 N 8.2788 2.7024 0.0 0
M  V30 5 C 6.2788 2.7024 0.0 0
M  V30 6 C 7.7788 1.8364 0.0 0
M  V30 7 C 9.2788 2.7024 0.0 0 CFG=2
M  V30 8 O 5.3006 2.4945 0.0 0
M  V30 9 C 6.7788 1.8364 0.0 0
M  V30 10 O 9.8666 1.8934 0.0 0
M  V30 11 C 9.8666 3.5114 0.0 0
M  V30 12 C 5.1961 1.5 0.0 0
M  V30 13 C 6.1096 1.0932 0.0 0
M  V30 14 C 10.8176 2.2024 0.0 0 CFG=1
M  V30 15 C 10.8176 3.2024 0.0 0 CFG=1
M  V30 16 C 4.3301 1.0 0.0 0
M  V30 17 C 11.6266 1.6146 0.0 0
M  V30 18 O 11.6266 3.7902 0.0 0
M  V30 19 C 3.4641 1.5 0.0 0
M  V30 20 C 4.3301 0.0 0.0 0
M  V30 21 O 12.5402 2.0213 0.0 0
M  V30 22 C 2.598 0.9999 0.0 0
M  V30 23 C 3.4641 -0.4999 0.0 0
M  V30 24 C 2.598 0.0 0.0 0
M  V30 25 C 1.732 -0.5 0.0 0
M  V30 26 C 0.866 0.0 0.0 0
M  V30 27 C 0.0 -0.5 0.0 0
M  V30 END ATOM
M  V30 BEGIN BOND
M  V30 1 2 1 2
M  V30 2 1 2 3
M  V30 3 1 2 4
M  V30 4 2 3 5
M  V30 5 1 4 6
M  V30 6 1 7 4 CFG=1
M  V30 7 1 5 8
M  V30 8 1 5 9
M  V30 9 1 7 10
M  V30 10 1 7 11
M  V30 11 1 8 12
M  V30 12 1 9 13
M  V30 13 1 14 10
M  V30 14 1 15 11
M  V30 15 1 12 16
M  V30 16 1 14 17 CFG=1
M  V30 17 1 15 18 CFG=3
M  V30 18 2 16 19
M  V30 19 1 16 20
M  V30 20 1 17 21
M  V30 21 1 19 22
M  V30 22 2 20 23
M  V30 23 2 22 24
M  V30 24 1 24 25
M  V30 25 1 25 26
M  V30 26 1 26 27
M  V30 27 2 6 9
M  V30 28 2 12 13
M  V30 29 1 14 15
M  V30 30 1 23 24
M  V30 END BOND
M  V30 BEGIN COLLECTION
M  V30 MDLV30/STEABS ATOMS=(3 7 14 15)
M  V30 END COLLECTION
M  V30 END CTAB
M  END
>  <Column 1>
290

>  <Column 2>
PandemicResponseBox - Plate D

>  <Column 3>
B08

>  <Column 4>
MMV1633969

>  <Column 5>
10 mM

>  <Column 6>
ANTIVIRALS

>  <Column 7>


>  <Column 8>
None

>  <Column 9>


>  <Column 10>
O=[C]2N=C1OC(=CC1=C[N]2[C@@H]3O[C@H](CO)[C@H](C3)O)C4=CC=C(CCC)C=C4

>  <Column 11>
CHEMBL147162

>  <Column 12>


>  <Column 13>
370.4

>  <Column 14>
C20 H22 N2 O5

>  <Tox-Glu>
ATCTOX

>  <Column 15>


>  <Column 16>
101 

>  <Column 17>
105 

>  <Column 18>
96 

>  <Column 19>


>  <Tox-Gal>
CTOXGAL

>  <Column 20>


>  <Column 21>
98 

>  <Column 22>
104 

>  <Column 23>
96 

>  <Column 24>


>  <Column 25>


>  <PAMPA>
PAMPA

>  <Column 26>
46

>  <Column 27>


>  <Column 28>


>  <Mouse>
ATMETMOU

>  <Column 29>
110

>  <Column 30>


$$$$
Compound 292
Actelion Java MolfileCreator 2.0

  0  0  0  0  0  0              0 V3000
M  V30 BEGIN CTAB
M  V30 COUNTS 25 28 0 0 0
M  V30 BEGIN ATOM
M  V30 1 O 2.598 -0.75 0.0 0
M  V30 2 C 1.299 0.0 0.0 0
M  V30 3 N 1.299 1.5 0.0 0
M  V30 4 C 0.0 -0.75 0.0 0
M  V30 5 C 2.598 2.25 0.0 0
M  V30 6 C 0.0 2.2499 0.0 0
M  V30 7 C -1.299 0.0 0.0 0
M  V30 8 C 0.0 -2.2499 0.0 0
M  V30 9 C 2.598 3.75 0.0 0
M  V30 10 C 0.0 3.75 0.0 0
M  V30 11 C -2.598 -0.7499 0.0 0
M  V30 12 C -1.299 1.5 0.0 0
M  V30 13 C -1.299 -2.9999 0.0 0
M  V30 14 N 1.299 4.5 0.0 0
M  V30 15 N -2.598 -2.2499 0.0 0
M  V30 16 C -3.8971 0.0 0.0 0
M  V30 17 C -2.598 2.25 0.0 0
M  V30 18 O -1.299 -4.4999 0.0 0
M  V30 19 C 1.299 6.0 0.0 0
M  V30 20 C -3.8971 1.5 0.0 0
M  V30 21 C 2.598 6.75 0.0 0
M  V30 22 C 0.0 6.75 0.0 0
M  V30 23 C 2.598 8.25 0.0 0
M  V30 24 C 0.0 8.25 0.0 0
M  V30 25 C 1.299 9.0 0.0 0
M  V30 END ATOM
M  V30 BEGIN BOND
M  V30 1 2 1 2
M  V30 2 1 2 3
M  V30 3 1 2 4
M  V30 4 1 3 5
M  V30 5 1 3 6
M  V30 6 1 4 7
M  V30 7 2 4 8
M  V30 8 1 5 9
M  V30 9 1 6 10
M  V30 10 1 7 11
M  V30 11 2 7 12
M  V30 12 1 8 13
M  V30 13 1 9 14
M  V30 14 1 11 15
M  V30 15 2 11 16
M  V30 16 1 12 17
M  V30 17 1 13 18
M  V30 18 1 14 19
M  V30 19 1 16 20
M  V30 20 2 19 21
M  V30 21 1 19 22
M  V30 22 1 21 23
M  V30 23 2 22 24
M  V30 24 2 23 25
M  V30 25 1 10 14
M  V30 26 2 13 15
M  V30 27 2 17 20
M  V30 28 1 24 25
M  V30 END BOND
M  V30 END CTAB
M  END
>  <Column 1>
291

>  <Column 2>
PandemicResponseBox - Plate D

>  <Column 3>
C08

>  <Column 4>
MMV596723

>  <Column 5>
10 mM

>  <Column 6>
ANTIVIRALS

>  <Column 7>


>  <Column 8>
None

>  <Column 9>


>  <Column 10>
O=C(N2CCN(C1=CC=CC=C1)CC2)C3=CC(=NC4=CC=CC=C34)O

>  <Column 11>
CHEMBL1537296

>  <Column 12>


>  <Column 13>
333.4

>  <Column 14>
C20H19N3O2

>  <Tox-Glu>
ATCTOX

>  <Column 15>


>  <Column 16>
94 

>  <Column 17>
92 

>  <Column 18>
91 

>  <Column 19>


>  <Tox-Gal>
CTOXGAL

>  <Column 20>


>  <Column 21>
94 

>  <Column 22>
86 

>  <Column 23>
92 

>  <Column 24>


>  <Column 25>


>  <PAMPA>
PAMPA

>  <Column 26>
undetected

>  <Column 27>
low sensitivity

>  <Column 28>


>  <Mouse>
ATMETMOU

>  <Column 29>


>  <Column 30>
Not determined; Low sensitivity

$$$$
Compound 293
Actelion Java MolfileCreator 2.0

  0  0  0  0  0  0              0 V3000
M  V30 BEGIN CTAB
M  V30 COUNTS 13 14 0 0 0
M  V30 BEGIN ATOM
M  V30 1 I 1.299 0.0 0.0 0
M  V30 2 C 0.0 -0.75 0.0 0
M  V30 3 C -1.299 0.0 0.0 0
M  V30 4 C 0.0 -2.2499 0.0 0
M  V30 5 N -1.299 1.5 0.0 0
M  V30 6 C -2.598 -0.7499 0.0 0
M  V30 7 C -1.299 -2.9999 0.0 0
M  V30 8 C 1.299 -2.9999 0.0 0
M  V30 9 C -2.598 -2.2499 0.0 0
M  V30 10 O -1.299 -4.4999 0.0 0
M  V30 11 C 1.299 -4.5 0.0 0
M  V30 12 C 0.0 -5.2499 0.0 0
M  V30 13 O 0.0 -6.7499 0.0 0
M  V30 END ATOM
M  V30 BEGIN BOND
M  V30 1 1 1 2
M  V30 2 2 2 3
M  V30 3 1 2 4
M  V30 4 1 3 5
M  V30 5 1 3 6
M  V30 6 2 4 7
M  V30 7 1 4 8
M  V30 8 2 6 9
M  V30 9 1 7 10
M  V30 10 2 8 11
M  V30 11 1 10 12
M  V30 12 2 12 13
M  V30 13 1 7 9
M  V30 14 1 11 12
M  V30 END BOND
M  V30 END CTAB
M  END
>  <Column 1>
292

>  <Column 2>
PandemicResponseBox - Plate D

>  <Column 3>
D08

>  <Column 4>
MMV1581378

>  <Column 5>
10 mM

>  <Column 6>
ANTIVIRALS

>  <Column 7>


>  <Column 8>
None

>  <Column 9>


>  <Column 10>
IC1=C(N)C=CC2=C1C=C[C](O2)=O

>  <Column 11>
NA

>  <Column 12>
�US�5482975

>  <Column 13>
287.1

>  <Column 14>
C9 H6 I N O2

>  <Tox-Glu>
ATCTOX

>  <Column 15>


>  <Column 16>
95 

>  <Column 17>
93 

>  <Column 18>
88 

>  <Column 19>


>  <Tox-Gal>
CTOXGAL

>  <Column 20>


>  <Column 21>
96 

>  <Column 22>
83 

>  <Column 23>
91 

>  <Column 24>


>  <Column 25>


>  <PAMPA>
PAMPA

>  <Column 26>
undetected

>  <Column 27>
low sensitivity

>  <Column 28>


>  <Mouse>
ATMETMOU

>  <Column 29>


>  <Column 30>
Not determined; Low sensitivity

$$$$
Compound 294
Actelion Java MolfileCreator 2.0

  0  0  0  0  0  0              0 V3000
M  V30 BEGIN CTAB
M  V30 COUNTS 24 27 0 0 0
M  V30 BEGIN ATOM
M  V30 1 Cl 0.866 0.0 0.0 0
M  V30 2 C 0.0 -0.5 0.0 0
M  V30 3 C -0.866 0.0 0.0 0
M  V30 4 C 0.0 -1.4999 0.0 0
M  V30 5 C -1.732 -0.4999 0.0 0
M  V30 6 C -0.866 1.0 0.0 0
M  V30 7 C -0.866 -1.9999 0.0 0
M  V30 8 F -2.598 0.0 0.0 0
M  V30 9 C -1.732 -1.4999 0.0 0
M  V30 10 N 0.0 1.5 0.0 0
M  V30 11 C -1.732 1.5 0.0 0
M  V30 12 N 0.951 1.1909 0.0 0
M  V30 13 C 0.0 2.5 0.0 0
M  V30 14 C -1.732 2.5 0.0 0
M  V30 15 N 1.5388 1.9999 0.0 0
M  V30 16 N 0.951 2.809 0.0 0
M  V30 17 N -0.866 3.0 0.0 0
M  V30 18 C -2.598 3.0 0.0 0
M  V30 19 C -2.598 4.0 0.0 0
M  V30 20 C -3.4641 2.5 0.0 0
M  V30 21 C -3.4641 4.5 0.0 0
M  V30 22 C -4.3301 3.0 0.0 0
M  V30 23 C -4.3301 4.0 0.0 0
M  V30 24 Cl -5.1961 4.5 0.0 0
M  V30 END ATOM
M  V30 BEGIN BOND
M  V30 1 1 1 2
M  V30 2 2 2 3
M  V30 3 1 2 4
M  V30 4 1 3 5
M  V30 5 1 3 6
M  V30 6 2 4 7
M  V30 7 1 5 8
M  V30 8 2 5 9
M  V30 9 1 6 10
M  V30 10 1 6 11
M  V30 11 1 10 12
M  V30 12 1 10 13
M  V30 13 1 11 14
M  V30 14 2 12 15
M  V30 15 2 13 16
M  V30 16 1 13 17
M  V30 17 1 14 18
M  V30 18 2 18 19
M  V30 19 1 18 20
M  V30 20 1 19 21
M  V30 21 2 20 22
M  V30 22 2 21 23
M  V30 23 1 23 24
M  V30 24 1 7 9
M  V30 25 1 14 17
M  V30 26 1 15 16
M  V30 27 1 22 23
M  V30 END BOND
M  V30 END CTAB
M  END
>  <Column 1>
293

>  <Column 2>
PandemicResponseBox - Plate D

>  <Column 3>
E08

>  <Column 4>
MMV1581031

>  <Column 5>
10 mM

>  <Column 6>
ANTIVIRALS

>  <Column 7>
1

>  <Column 8>
Free Base/Acid

>  <Column 9>
HBF 0259

>  <Column 10>
ClC1=C(C(=CC=C1)F)C3[N]2N=NN=C2NC(C3)C4=CC=C(Cl)C=C4

>  <Column 11>
CHEMBL550956

>  <Column 12>


>  <Column 13>
364.2

>  <Column 14>
C16 H12 Cl2 F N5

>  <Tox-Glu>
ATCTOX

>  <Column 15>


>  <Column 16>
102 

>  <Column 17>
85 

>  <Column 18>
1 

>  <Column 19>


>  <Tox-Gal>
CTOXGAL

>  <Column 20>


>  <Column 21>
100 

>  <Column 22>
76 

>  <Column 23>
1 

>  <Column 24>


>  <Column 25>


>  <PAMPA>
PAMPA

>  <Column 26>
489

>  <Column 27>


>  <Column 28>


>  <Mouse>
ATMETMOU

>  <Column 29>
187

>  <Column 30>


$$$$
Compound 295
Actelion Java MolfileCreator 2.0

  0  0  0  0  0  0              0 V3000
M  V30 BEGIN CTAB
M  V30 COUNTS 32 35 0 0 0
M  V30 BEGIN ATOM
M  V30 1 F 6.1737 -5.3566 0.0 0
M  V30 2 C 5.7669 -4.443 0.0 0
M  V30 3 C 6.3547 -3.634 0.0 0
M  V30 4 C 4.7724 -4.3385 0.0 0
M  V30 5 C 5.948 -2.7205 0.0 0
M  V30 6 C 4.3657 -3.4249 0.0 0
M  V30 7 C 4.9535 -2.6159 0.0 0
M  V30 8 C 4.5467 -1.7024 0.0 0
M  V30 9 N 5.0467 -0.8364 0.0 0
M  V30 10 C 3.5686 -1.4945 0.0 0
M  V30 11 C 4.3776 -0.0932 0.0 0
M  V30 12 N 3.4641 -0.5 0.0 0
M  V30 13 C 2.8254 -2.1636 0.0 0
M  V30 14 C 4.5855 0.8848 0.0 0
M  V30 15 C 2.598 0.0 0.0 0
M  V30 16 C 1.8744 -1.8546 0.0 0
M  V30 17 C 3.0333 -3.1418 0.0 0
M  V30 18 C 4.7934 1.863 0.0 0
M  V30 19 C 1.732 -0.5 0.0 0
M  V30 20 C 1.1312 -2.5237 0.0 0
M  V30 21 C 2.2902 -3.8109 0.0 0
M  V30 22 C 5.0013 2.8411 0.0 0
M  V30 23 C 0.866 0.0 0.0 0
M  V30 24 N 1.3391 -3.5019 0.0 0
M  V30 25 C 4.2582 3.5103 0.0 0
M  V30 26 C 0.0 -0.5 0.0 0
M  V30 27 O 3.3071 3.2012 0.0 0
M  V30 28 C -0.866 0.0 0.0 0
M  V30 29 C 0.0 -1.4999 0.0 0
M  V30 30 C -1.732 -0.4999 0.0 0
M  V30 31 C -0.866 -1.9999 0.0 0
M  V30 32 C -1.732 -1.4999 0.0 0
M  V30 END ATOM
M  V30 BEGIN BOND
M  V30 1 1 1 2
M  V30 2 2 2 3
M  V30 3 1 2 4
M  V30 4 1 3 5
M  V30 5 2 4 6
M  V30 6 2 5 7
M  V30 7 1 7 8
M  V30 8 1 8 9
M  V30 9 2 8 10
M  V30 10 2 9 11
M  V30 11 1 10 12
M  V30 12 1 10 13
M  V30 13 1 11 14
M  V30 14 1 12 15
M  V30 15 2 13 16
M  V30 16 1 13 17
M  V30 17 3 14 18
M  V30 18 1 15 19
M  V30 19 1 16 20
M  V30 20 2 17 21
M  V30 21 1 18 22
M  V30 22 1 19 23
M  V30 23 2 20 24
M  V30 24 1 22 25
M  V30 25 1 23 26
M  V30 26 1 25 27
M  V30 27 2 26 28
M  V30 28 1 26 29
M  V30 29 1 28 30
M  V30 30 2 29 31
M  V30 31 2 30 32
M  V30 32 1 6 7
M  V30 33 1 11 12
M  V30 34 1 21 24
M  V30 35 1 31 32
M  V30 END BOND
M  V30 END CTAB
M  END
>  <Column 1>
294

>  <Column 2>
PandemicResponseBox - Plate D

>  <Column 3>
F08

>  <Column 4>
MMV1580797

>  <Column 5>
10 mM

>  <Column 6>
ANTIVIRALS

>  <Column 7>


>  <Column 8>
None

>  <Column 9>
RWJ-67657

>  <Column 10>
FC4=CC=C(C2=C([N](CCCC1=CC=CC=C1)C(=N2)C#CCCO)C3=CC=NC=C3)C=C4

>  <Column 11>
CHEMBL190333

>  <Column 12>
WO 2018007788 

>  <Column 13>
425.5

>  <Column 14>
C27 H24 F N3 O

>  <Tox-Glu>
ATCTOX

>  <Column 15>


>  <Column 16>
98 

>  <Column 17>
57 

>  <Column 18>
2 

>  <Column 19>


>  <Tox-Gal>
CTOXGAL

>  <Column 20>


>  <Column 21>
101 

>  <Column 22>
28 

>  <Column 23>
1 

>  <Column 24>


>  <Column 25>


>  <PAMPA>
PAMPA

>  <Column 26>
474

>  <Column 27>


>  <Column 28>


>  <Mouse>
ATMETMOU

>  <Column 29>
>768

>  <Column 30>


$$$$
Compound 296
Actelion Java MolfileCreator 2.0

  0  0  0  0  0  0              0 V3000
M  V30 BEGIN CTAB
M  V30 COUNTS 18 19 0 0 0
M  V30 BEGIN ATOM
M  V30 1 O 2.598 0.0 0.0 0
M  V30 2 C 1.732 -0.5 0.0 0
M  V30 3 C 3.4641 -0.5 0.0 0
M  V30 4 C 1.732 -1.5 0.0 0
M  V30 5 C 0.866 0.0 0.0 0
M  V30 6 N 4.3301 0.0 0.0 0
M  V30 7 O 2.598 -1.9999 0.0 0
M  V30 8 O 0.0 -0.5 0.0 0
M  V30 9 C 5.2436 -0.4067 0.0 0
M  V30 10 C 4.4346 0.9945 0.0 0
M  V30 11 N 5.5526 -1.3577 0.0 0
M  V30 12 C 5.9128 0.3364 0.0 0
M  V30 13 N 5.4128 1.2024 0.0 0
M  V30 14 C 6.5308 -1.5657 0.0 0
M  V30 15 C 6.8909 0.1284 0.0 0
M  V30 16 N 7.1999 -0.8225 0.0 0
M  V30 17 N 6.8398 -2.5167 0.0 0
M  V30 18 O 7.56 0.8716 0.0 0
M  V30 END ATOM
M  V30 BEGIN BOND
M  V30 1 1 1 2
M  V30 2 1 1 3
M  V30 3 1 2 4
M  V30 4 1 2 5
M  V30 5 1 3 6
M  V30 6 1 4 7
M  V30 7 1 5 8
M  V30 8 1 6 9
M  V30 9 1 6 10
M  V30 10 2 9 11
M  V30 11 1 9 12
M  V30 12 2 10 13
M  V30 13 1 11 14
M  V30 14 2 12 15
M  V30 15 2 14 16
M  V30 16 1 14 17
M  V30 17 1 15 18
M  V30 18 1 12 13
M  V30 19 1 15 16
M  V30 END BOND
M  V30 END CTAB
M  END
>  <Column 1>
295

>  <Column 2>
PandemicResponseBox - Plate D

>  <Column 3>
G08

>  <Column 4>
MMV001761

>  <Column 5>
10 mM

>  <Column 6>
ANTIVIRALS

>  <Column 7>


>  <Column 8>
None

>  <Column 9>
Ganciclovir

>  <Column 10>
O(C(CO)CO)C[N]2C1=NC(=NC(=C1N=C2)O)N

>  <Column 11>
CHEMBL182

>  <Column 12>


>  <Column 13>
255.2

>  <Column 14>
C9H13N5O4

>  <Tox-Glu>
ATCTOX

>  <Column 15>


>  <Column 16>
94 

>  <Column 17>
99 

>  <Column 18>
97 

>  <Column 19>


>  <Tox-Gal>
CTOXGAL

>  <Column 20>


>  <Column 21>
99 

>  <Column 22>
95 

>  <Column 23>
101 

>  <Column 24>


>  <Column 25>


>  <PAMPA>
PAMPA

>  <Column 26>
undetected

>  <Column 27>
low sensitivity

>  <Column 28>


>  <Mouse>
ATMETMOU

>  <Column 29>


>  <Column 30>
Not determined; Low sensitivity

$$$$
Compound 297
Actelion Java MolfileCreator 2.0

  0  0  0  0  0  0              0 V3000
M  V30 BEGIN CTAB
M  V30 COUNTS 23 26 0 0 0
M  V30 BEGIN ATOM
M  V30 1 Cl 6.4951 -3.0 0.0 0
M  V30 2 C 5.1961 -2.2499 0.0 0
M  V30 3 C 5.1961 -0.75 0.0 0
M  V30 4 C 3.8971 -2.9999 0.0 0
M  V30 5 C 3.8971 0.0 0.0 0
M  V30 6 C 2.598 -2.25 0.0 0
M  V30 7 C 2.598 -0.75 0.0 0
M  V30 8 C 1.299 0.0 0.0 0
M  V30 9 N 0.0 -0.75 0.0 0
M  V30 10 C -1.3703 -0.1398 0.0 0
M  V30 11 C -0.1567 -2.2417 0.0 0
M  V30 12 C -2.374 -1.2546 0.0 0
M  V30 13 C -1.8338 1.2866 0.0 0
M  V30 14 N -1.624 -2.5536 0.0 0
M  V30 15 C 0.9579 -3.2454 0.0 0
M  V30 16 C -3.8412 -0.9427 0.0 0
M  V30 17 C -3.301 1.5985 0.0 0
M  V30 18 N 0.646 -4.7127 0.0 0
M  V30 19 C -4.3047 0.4838 0.0 0
M  V30 20 C 1.6497 -5.8274 0.0 0
M  V30 21 C -0.7242 -5.3228 0.0 0
M  V30 22 C 0.8997 -7.1264 0.0 0
M  V30 23 C -0.5674 -6.8145 0.0 0
M  V30 END ATOM
M  V30 BEGIN BOND
M  V30 1 1 1 2
M  V30 2 2 2 3
M  V30 3 1 2 4
M  V30 4 1 3 5
M  V30 5 2 4 6
M  V30 6 2 5 7
M  V30 7 1 7 8
M  V30 8 1 8 9
M  V30 9 1 9 10
M  V30 10 1 9 11
M  V30 11 2 10 12
M  V30 12 1 10 13
M  V30 13 2 11 14
M  V30 14 1 11 15
M  V30 15 1 12 16
M  V30 16 2 13 17
M  V30 17 1 15 18
M  V30 18 2 16 19
M  V30 19 1 18 20
M  V30 20 1 18 21
M  V30 21 1 20 22
M  V30 22 1 21 23
M  V30 23 1 6 7
M  V30 24 1 12 14
M  V30 25 1 17 19
M  V30 26 1 22 23
M  V30 END BOND
M  V30 END CTAB
M  END
>  <Column 1>
296

>  <Column 2>
PandemicResponseBox - Plate D

>  <Column 3>
H08

>  <Column 4>
MMV002015

>  <Column 5>
10 mM

>  <Column 6>
ANTIVIRALS

>  <Column 7>


>  <Column 8>
None

>  <Column 9>
Clemizole

>  <Column 10>
ClC4=CC=C(C[N]2C1=C(C=CC=C1)N=C2CN3CCCC3)C=C4

>  <Column 11>
CHEMBL1407943

>  <Column 12>


>  <Column 13>
325.8

>  <Column 14>
C19H20ClN3

>  <Tox-Glu>
ATCTOX

>  <Column 15>


>  <Column 16>
91 

>  <Column 17>
69 

>  <Column 18>
1 

>  <Column 19>


>  <Tox-Gal>
CTOXGAL

>  <Column 20>


>  <Column 21>
95 

>  <Column 22>
74 

>  <Column 23>
1 

>  <Column 24>


>  <Column 25>


>  <PAMPA>
PAMPA

>  <Column 26>
555

>  <Column 27>


>  <Column 28>


>  <Mouse>
ATMETMOU

>  <Column 29>
616

>  <Column 30>


$$$$
Compound 298
Actelion Java MolfileCreator 2.0

  0  0  0  0  0  0              0 V3000
M  V30 BEGIN CTAB
M  V30 COUNTS 14 15 0 0 0
M  V30 BEGIN ATOM
M  V30 1 S 3.3147 -0.8364 0.0 0
M  V30 2 C 2.6455 -0.0932 0.0 0
M  V30 3 C 2.8147 -1.7024 0.0 0
M  V30 4 N 2.8535 0.8848 0.0 0
M  V30 5 C 1.732 -0.5 0.0 0
M  V30 6 C 1.8365 -1.4945 0.0 0
M  V30 7 C 3.262 -2.5968 0.0 0
M  V30 8 C 0.866 0.0 0.0 0
M  V30 9 C 1.0641 -2.1296 0.0 0
M  V30 10 C 2.8416 -3.5041 0.0 0
M  V30 11 O 0.866 1.0 0.0 0
M  V30 12 N 0.0 -0.5 0.0 0
M  V30 13 C 1.0791 -3.1295 0.0 0
M  V30 14 C 1.8701 -3.7412 0.0 0
M  V30 END ATOM
M  V30 BEGIN BOND
M  V30 1 1 1 2
M  V30 2 1 1 3
M  V30 3 1 2 4
M  V30 4 2 2 5
M  V30 5 2 3 6
M  V30 6 1 3 7
M  V30 7 1 5 8
M  V30 8 1 6 9
M  V30 9 1 7 10
M  V30 10 2 8 11
M  V30 11 1 8 12
M  V30 12 1 9 13
M  V30 13 1 10 14
M  V30 14 1 5 6
M  V30 15 1 13 14
M  V30 END BOND
M  V30 END CTAB
M  END
>  <Column 1>
297

>  <Column 2>
PandemicResponseBox - Plate D

>  <Column 3>
A09

>  <Column 4>
MMV056052

>  <Column 5>
10 mM

>  <Column 6>
ANTIVIRALS

>  <Column 7>


>  <Column 8>
None

>  <Column 9>
NSC 727447

>  <Column 10>
S1C(=C(C(=O)N)C2=C1CCCCC2)N

>  <Column 11>
CHEMBL1493884

>  <Column 12>


>  <Column 13>
210.3

>  <Column 14>
C10H14N2OS

>  <Tox-Glu>
ATCTOX

>  <Column 15>


>  <Column 16>
99 

>  <Column 17>
104 

>  <Column 18>
83 

>  <Column 19>


>  <Tox-Gal>
CTOXGAL

>  <Column 20>


>  <Column 21>
103 

>  <Column 22>
102 

>  <Column 23>
99 

>  <Column 24>


>  <Column 25>


>  <PAMPA>
PAMPA

>  <Column 26>
undetected

>  <Column 27>
low sensitivity

>  <Column 28>


>  <Mouse>
ATMETMOU

>  <Column 29>


>  <Column 30>
Not determined; Low sensitivity

$$$$
Compound 299
Actelion Java MolfileCreator 2.0

  0  0  0  0  0  0              0 V3000
M  V30 BEGIN CTAB
M  V30 COUNTS 23 25 0 0 0
M  V30 BEGIN ATOM
M  V30 1 O 2.598 -0.75 0.0 0
M  V30 2 C 3.8971 0.0 0.0 0
M  V30 3 C 1.299 0.0 0.0 0
M  V30 4 C 5.1961 -0.7499 0.0 0
M  V30 5 C 3.8971 1.4999 0.0 0
M  V30 6 C 0.0 -0.75 0.0 0
M  V30 7 C 6.4951 0.0 0.0 0
M  V30 8 C 5.1961 -2.25 0.0 0
M  V30 9 C 5.1961 2.25 0.0 0
M  V30 10 C -1.299 0.0 0.0 0
M  V30 11 C 0.0 -2.2499 0.0 0
M  V30 12 C 6.4951 1.5 0.0 0
M  V30 13 N 3.8971 -3.0 0.0 0
M  V30 14 C -2.598 -0.7499 0.0 0
M  V30 15 C -1.299 -2.9999 0.0 0
M  V30 16 C 3.8971 -4.5 0.0 0
M  V30 17 C -2.598 -2.2499 0.0 0
M  V30 18 C 2.598 -5.2499 0.0 0
M  V30 19 C 5.1961 -5.25 0.0 0
M  V30 20 C 2.598 -6.75 0.0 0
M  V30 21 C 5.1961 -6.75 0.0 0
M  V30 22 C 3.8971 -7.5 0.0 0
M  V30 23 O 3.8971 -9.0 0.0 0
M  V30 END ATOM
M  V30 BEGIN BOND
M  V30 1 1 1 2
M  V30 2 1 1 3
M  V30 3 2 2 4
M  V30 4 1 2 5
M  V30 5 1 3 6
M  V30 6 1 4 7
M  V30 7 1 4 8
M  V30 8 2 5 9
M  V30 9 2 6 10
M  V30 10 1 6 11
M  V30 11 2 7 12
M  V30 12 1 8 13
M  V30 13 1 10 14
M  V30 14 2 11 15
M  V30 15 1 13 16
M  V30 16 2 14 17
M  V30 17 2 16 18
M  V30 18 1 16 19
M  V30 19 1 18 20
M  V30 20 2 19 21
M  V30 21 2 20 22
M  V30 22 1 22 23
M  V30 23 1 9 12
M  V30 24 1 15 17
M  V30 25 1 21 22
M  V30 END BOND
M  V30 END CTAB
M  END
>  <Column 1>
298

>  <Column 2>
PandemicResponseBox - Plate D

>  <Column 3>
B09

>  <Column 4>
MMV1580504

>  <Column 5>
10 mM

>  <Column 6>
ANTIVIRALS

>  <Column 7>


>  <Column 8>
None

>  <Column 9>


>  <Column 10>
O(C1=C(C=CC=C1)CNC2=CC=C(O)C=C2)CC3=CC=CC=C3

>  <Column 11>
CHEMBL1465049

>  <Column 12>


>  <Column 13>
305.4

>  <Column 14>
C20 H19 N O2

>  <Tox-Glu>
ATCTOX

>  <Column 15>


>  <Column 16>
97 

>  <Column 17>
40 

>  <Column 18>
1 

>  <Column 19>


>  <Tox-Gal>
CTOXGAL

>  <Column 20>


>  <Column 21>
104 

>  <Column 22>
67 

>  <Column 23>
1 

>  <Column 24>


>  <Column 25>


>  <PAMPA>
PAMPA

>  <Column 26>
316

>  <Column 27>


>  <Column 28>


>  <Mouse>
ATMETMOU

>  <Column 29>
544

>  <Column 30>


$$$$
Compound 300
Actelion Java MolfileCreator 2.0

  0  0  0  0  0  0              0 V3000
M  V30 BEGIN CTAB
M  V30 COUNTS 16 17 0 0 0
M  V30 BEGIN ATOM
M  V30 1 O 2.598 0.0 0.0 0
M  V30 2 C 3.4641 -0.5 0.0 0
M  V30 3 C 1.732 -0.5 0.0 0
M  V30 4 N 4.3301 0.0 0.0 0
M  V30 5 C 0.866 0.0 0.0 0
M  V30 6 C 5.2436 -0.4067 0.0 0
M  V30 7 C 4.4346 0.9945 0.0 0
M  V30 8 O 0.0 -0.5 0.0 0
M  V30 9 N 5.5526 -1.3577 0.0 0
M  V30 10 C 5.9128 0.3364 0.0 0
M  V30 11 N 5.4128 1.2024 0.0 0
M  V30 12 C 6.5308 -1.5657 0.0 0
M  V30 13 C 6.8909 0.1284 0.0 0
M  V30 14 N 7.1999 -0.8225 0.0 0
M  V30 15 N 6.8398 -2.5167 0.0 0
M  V30 16 O 7.56 0.8716 0.0 0
M  V30 END ATOM
M  V30 BEGIN BOND
M  V30 1 1 1 2
M  V30 2 1 1 3
M  V30 3 1 2 4
M  V30 4 1 3 5
M  V30 5 1 4 6
M  V30 6 1 4 7
M  V30 7 1 5 8
M  V30 8 2 6 9
M  V30 9 1 6 10
M  V30 10 2 7 11
M  V30 11 1 9 12
M  V30 12 2 10 13
M  V30 13 2 12 14
M  V30 14 1 12 15
M  V30 15 1 13 16
M  V30 16 1 10 11
M  V30 17 1 13 14
M  V30 END BOND
M  V30 END CTAB
M  END
>  <Column 1>
299

>  <Column 2>
PandemicResponseBox - Plate D

>  <Column 3>
C09

>  <Column 4>
MMV001961

>  <Column 5>
10 mM

>  <Column 6>
ANTIVIRALS

>  <Column 7>


>  <Column 8>
None

>  <Column 9>
Aciclovir

>  <Column 10>
O(C[N]2C1=NC(=NC(=C1N=C2)O)N)CCO

>  <Column 11>
CHEMBL184

>  <Column 12>


>  <Column 13>
225.2

>  <Column 14>
C8H11N5O3

>  <Tox-Glu>
ATCTOX

>  <Column 15>


>  <Column 16>
100 

>  <Column 17>
103 

>  <Column 18>
99 

>  <Column 19>


>  <Tox-Gal>
CTOXGAL

>  <Column 20>


>  <Column 21>
104 

>  <Column 22>
106 

>  <Column 23>
107 

>  <Column 24>


>  <Column 25>


>  <PAMPA>
PAMPA

>  <Column 26>
undetected

>  <Column 27>
low sensitivity

>  <Column 28>


>  <Mouse>
ATMETMOU

>  <Column 29>


>  <Column 30>
Not determined; Low sensitivity

$$$$
Compound 301
Actelion Java MolfileCreator 2.0

  0  0  0  0  0  0              0 V3000
M  V30 BEGIN CTAB
M  V30 COUNTS 20 22 0 0 0
M  V30 BEGIN ATOM
M  V30 1 O 6.9073 0.2318 0.0 0
M  V30 2 C 5.9128 0.3364 0.0 0
M  V30 3 N 5.4128 1.2024 0.0 0
M  V30 4 C 5.2436 -0.4067 0.0 0
M  V30 5 C 4.4346 0.9945 0.0 0
M  V30 6 C 4.3301 0.0 0.0 0 CFG=1
M  V30 7 C 3.4641 -0.5 0.0 0
M  V30 8 C 2.598 0.0 0.0 0
M  V30 9 C 3.4641 -1.4999 0.0 0
M  V30 10 C 1.732 -0.5 0.0 0
M  V30 11 C 2.598 -2.0 0.0 0
M  V30 12 O 0.866 0.0 0.0 0
M  V30 13 C 1.732 -1.5 0.0 0
M  V30 14 C 0.0 -0.5 0.0 0
M  V30 15 O 0.866 -1.9999 0.0 0
M  V30 16 C -0.9135 -0.0932 0.0 0
M  V30 17 C -0.1045 -1.4945 0.0 0
M  V30 18 C 0.866 -2.9999 0.0 0
M  V30 19 C -1.5826 -0.8364 0.0 0
M  V30 20 C -1.0826 -1.7024 0.0 0
M  V30 END ATOM
M  V30 BEGIN BOND
M  V30 1 2 1 2
M  V30 2 1 2 3
M  V30 3 1 2 4
M  V30 4 1 3 5
M  V30 5 1 6 4
M  V30 6 1 6 7 CFG=3
M  V30 7 2 7 8
M  V30 8 1 7 9
M  V30 9 1 8 10
M  V30 10 2 9 11
M  V30 11 1 10 12
M  V30 12 2 10 13
M  V30 13 1 12 14
M  V30 14 1 13 15
M  V30 15 1 14 16
M  V30 16 1 14 17
M  V30 17 1 15 18
M  V30 18 1 16 19
M  V30 19 1 17 20
M  V30 20 1 5 6
M  V30 21 1 11 13
M  V30 22 1 19 20
M  V30 END BOND
M  V30 BEGIN COLLECTION
M  V30 MDLV30/STERAC1 ATOMS=(1 6)
M  V30 END COLLECTION
M  V30 END CTAB
M  END
>  <Column 1>
300

>  <Column 2>
PandemicResponseBox - Plate D

>  <Column 3>
D09

>  <Column 4>
MMV003738

>  <Column 5>
10 mM

>  <Column 6>
ANTIVIRALS

>  <Column 7>


>  <Column 8>
None

>  <Column 9>
Rolipram

>  <Column 10>
O=C1NCC(C1)C2=CC(=C(OC)C=C2)OC3CCCC3

>  <Column 11>
CHEMBL63

>  <Column 12>
 Bioorganic & Medicinal Chemistry Letters (2018), 28(3), 452-458;Virus Genes (2012), 44(3), 374-381

>  <Column 13>
275.3

>  <Column 14>
C16H21NO3

>  <Tox-Glu>
ATCTOX

>  <Column 15>


>  <Column 16>
102 

>  <Column 17>
105 

>  <Column 18>
99 

>  <Column 19>


>  <Tox-Gal>
CTOXGAL

>  <Column 20>


>  <Column 21>
102 

>  <Column 22>
102 

>  <Column 23>
105 

>  <Column 24>


>  <Column 25>


>  <PAMPA>
PAMPA

>  <Column 26>
168

>  <Column 27>


>  <Column 28>


>  <Mouse>
ATMETMOU

>  <Column 29>
70

>  <Column 30>


$$$$
Compound 302
Actelion Java MolfileCreator 2.0

  0  0  0  0  0  0              0 V3000
M  V30 BEGIN CTAB
M  V30 COUNTS 15 16 0 0 0
M  V30 BEGIN ATOM
M  V30 1 Br 1.299 0.0 0.0 0
M  V30 2 C 0.0 -0.75 0.0 0
M  V30 3 C -1.299 0.0 0.0 0
M  V30 4 C 0.0 -2.2499 0.0 0
M  V30 5 O -1.299 1.5 0.0 0
M  V30 6 N -2.598 -0.7499 0.0 0
M  V30 7 N -1.299 -2.9999 0.0 0
M  V30 8 C 1.299 -3.0 0.0 0
M  V30 9 C -2.598 -2.2499 0.0 0
M  V30 10 C 1.299 -4.5 0.0 0
M  V30 11 C 2.598 -2.25 0.0 0
M  V30 12 N -3.8971 -2.9999 0.0 0
M  V30 13 C 2.598 -5.25 0.0 0
M  V30 14 C 3.8971 -3.0 0.0 0
M  V30 15 C 3.8971 -4.5 0.0 0
M  V30 END ATOM
M  V30 BEGIN BOND
M  V30 1 1 1 2
M  V30 2 2 2 3
M  V30 3 1 2 4
M  V30 4 1 3 5
M  V30 5 1 3 6
M  V30 6 2 4 7
M  V30 7 1 4 8
M  V30 8 2 6 9
M  V30 9 2 8 10
M  V30 10 1 8 11
M  V30 11 1 9 12
M  V30 12 1 10 13
M  V30 13 2 11 14
M  V30 14 2 13 15
M  V30 15 1 7 9
M  V30 16 1 14 15
M  V30 END BOND
M  V30 END CTAB
M  END
>  <Column 1>
301

>  <Column 2>
PandemicResponseBox - Plate D

>  <Column 3>
E09

>  <Column 4>
MMV690540

>  <Column 5>
10 mM

>  <Column 6>
ANTIVIRALS

>  <Column 7>


>  <Column 8>
None

>  <Column 9>
Bropirimine

>  <Column 10>
BrC1=C(O)N=C(N)N=C1C2=CC=CC=C2

>  <Column 11>
CHEMBL37387

>  <Column 12>
US-04507302

>  <Column 13>
266.1

>  <Column 14>
C10 H8 Br N3 O

>  <Tox-Glu>
ATCTOX

>  <Column 15>


>  <Column 16>
98 

>  <Column 17>
99 

>  <Column 18>
91 

>  <Column 19>


>  <Tox-Gal>
CTOXGAL

>  <Column 20>


>  <Column 21>
104 

>  <Column 22>
101 

>  <Column 23>
104 

>  <Column 24>


>  <Column 25>


>  <PAMPA>
PAMPA

>  <Column 26>
86

>  <Column 27>


>  <Column 28>


>  <Mouse>
ATMETMOU

>  <Column 29>
24

>  <Column 30>


$$$$
Compound 303
Actelion Java MolfileCreator 2.0

  0  0  0  0  0  0              0 V3000
M  V30 BEGIN CTAB
M  V30 COUNTS 25 28 0 0 0
M  V30 BEGIN ATOM
M  V30 1 Cl 10.3923 -6.75 0.0 0
M  V30 2 C 9.0932 -7.5 0.0 0
M  V30 3 C 7.7942 -6.75 0.0 0
M  V30 4 C 9.0932 -9.0 0.0 0
M  V30 5 C 6.4951 -7.5 0.0 0
M  V30 6 C 7.7942 -5.25 0.0 0 CFG=1
M  V30 7 C 7.7942 -9.75 0.0 0
M  V30 8 F 5.1961 -6.75 0.0 0
M  V30 9 C 6.4951 -9.0 0.0 0
M  V30 10 N 9.0932 -4.5 0.0 0
M  V30 11 C 6.4951 -4.5 0.0 0
M  V30 12 N 10.5198 -4.9635 0.0 0
M  V30 13 C 9.0932 -3.0 0.0 0
M  V30 14 C 6.4951 -3.0 0.0 0
M  V30 15 C 11.4015 -3.75 0.0 0
M  V30 16 N 10.5198 -2.5364 0.0 0
M  V30 17 N 7.7942 -2.25 0.0 0
M  V30 18 C 5.1961 -2.25 0.0 0
M  V30 19 C 5.1961 -0.75 0.0 0
M  V30 20 C 3.8971 -2.9999 0.0 0
M  V30 21 C 3.8971 0.0 0.0 0
M  V30 22 C 2.598 -2.25 0.0 0
M  V30 23 C 2.598 -0.75 0.0 0
M  V30 24 O 1.299 0.0 0.0 0
M  V30 25 C 0.0 -0.75 0.0 0
M  V30 END ATOM
M  V30 BEGIN BOND
M  V30 1 1 1 2
M  V30 2 2 2 3
M  V30 3 1 2 4
M  V30 4 1 3 5
M  V30 5 1 6 3 CFG=3
M  V30 6 2 4 7
M  V30 7 1 5 8
M  V30 8 2 5 9
M  V30 9 1 6 10
M  V30 10 1 6 11
M  V30 11 1 10 12
M  V30 12 1 10 13
M  V30 13 2 11 14
M  V30 14 2 12 15
M  V30 15 2 13 16
M  V30 16 1 13 17
M  V30 17 1 14 18
M  V30 18 2 18 19
M  V30 19 1 18 20
M  V30 20 1 19 21
M  V30 21 2 20 22
M  V30 22 2 21 23
M  V30 23 1 23 24
M  V30 24 1 24 25
M  V30 25 1 7 9
M  V30 26 1 14 17
M  V30 27 1 15 16
M  V30 28 1 22 23
M  V30 END BOND
M  V30 BEGIN COLLECTION
M  V30 MDLV30/STERAC1 ATOMS=(1 6)
M  V30 END COLLECTION
M  V30 END CTAB
M  END
>  <Column 1>
302

>  <Column 2>
PandemicResponseBox - Plate D

>  <Column 3>
F09

>  <Column 4>
MMV614278

>  <Column 5>
10 mM

>  <Column 6>
ANTIVIRALS

>  <Column 7>


>  <Column 8>
None

>  <Column 9>


>  <Column 10>
ClC1=C(C(=CC=C1)F)C3[N]2N=CN=C2NC(=C3)C4=CC=C(OC)C=C4

>  <Column 11>
CHEMBL1814197

>  <Column 12>


>  <Column 13>
356.8

>  <Column 14>
C18H14ClFN4O

>  <Tox-Glu>
ATCTOX

>  <Column 15>


>  <Column 16>
97 

>  <Column 17>
97 

>  <Column 18>
70 

>  <Column 19>


>  <Tox-Gal>
CTOXGAL

>  <Column 20>


>  <Column 21>
101 

>  <Column 22>
92 

>  <Column 23>
50 

>  <Column 24>


>  <Column 25>


>  <PAMPA>
PAMPA

>  <Column 26>
421

>  <Column 27>


>  <Column 28>


>  <Mouse>
ATMETMOU

>  <Column 29>
450

>  <Column 30>


$$$$
Compound 304
Actelion Java MolfileCreator 2.0

  0  0  0  0  0  0              0 V3000
M  V30 BEGIN CTAB
M  V30 COUNTS 36 40 0 0 0
M  V30 BEGIN ATOM
M  V30 1 Cl 0.866 2.9999 0.0 0
M  V30 2 C 1.732 2.4999 0.0 0
M  V30 3 C 1.732 1.4999 0.0 0
M  V30 4 C 2.598 2.9999 0.0 0
M  V30 5 C 2.598 0.9999 0.0 0
M  V30 6 C 3.4641 2.5 0.0 0
M  V30 7 C 3.4641 1.5 0.0 0
M  V30 8 C 2.598 0.0 0.0 0
M  V30 9 O 4.3301 1.0 0.0 0
M  V30 10 C 3.4641 -0.4999 0.0 0
M  V30 11 C 1.732 -0.5 0.0 0
M  V30 12 C 4.3301 0.0 0.0 0
M  V30 13 C 3.4641 -1.4999 0.0 0
M  V30 14 O 1.732 -1.5 0.0 0
M  V30 15 N 0.866 0.0 0.0 0
M  V30 16 C 5.1961 -0.4999 0.0 0
M  V30 17 C 4.3301 -1.9999 0.0 0
M  V30 18 C 0.0 -0.5 0.0 0
M  V30 19 C 5.1961 -1.4999 0.0 0
M  V30 20 Cl 4.3301 -2.9999 0.0 0
M  V30 21 C -0.866 0.0 0.0 0
M  V30 22 C 0.0 -1.4999 0.0 0
M  V30 23 C -1.732 -0.4999 0.0 0
M  V30 24 C -0.866 -1.9999 0.0 0
M  V30 25 N -1.732 -1.4999 0.0 0 CHG=1
M  V30 26 C -2.598 -1.9999 0.0 0
M  V30 27 C -1.732 -2.4999 0.0 0
M  V30 28 C -3.4641 -1.4999 0.0 0
M  V30 29 C -0.866 -2.9999 0.0 0
M  V30 30 C -4.2574 -2.1087 0.0 0
M  V30 31 C -3.3335 -0.5085 0.0 0
M  V30 32 C -5.2488 -1.9782 0.0 0
M  V30 33 C -3.9423 0.2847 0.0 0
M  V30 34 C -5.8576 -1.1848 0.0 0
M  V30 35 C -4.9337 0.4153 0.0 0
M  V30 36 C -5.7271 -0.1934 0.0 0
M  V30 END ATOM
M  V30 BEGIN BOND
M  V30 1 1 1 2
M  V30 2 2 2 3
M  V30 3 1 2 4
M  V30 4 1 3 5
M  V30 5 2 4 6
M  V30 6 2 5 7
M  V30 7 1 5 8
M  V30 8 1 7 9
M  V30 9 1 8 10
M  V30 10 1 8 11
M  V30 11 1 9 12
M  V30 12 1 10 13
M  V30 13 2 11 14
M  V30 14 1 11 15
M  V30 15 1 12 16
M  V30 16 2 13 17
M  V30 17 1 15 18
M  V30 18 2 16 19
M  V30 19 1 17 20
M  V30 20 1 18 21
M  V30 21 1 18 22
M  V30 22 1 21 23
M  V30 23 1 22 24
M  V30 24 1 23 25
M  V30 25 1 25 26
M  V30 26 1 25 27
M  V30 27 1 26 28
M  V30 28 1 27 29
M  V30 29 2 28 30
M  V30 30 1 28 31
M  V30 31 1 30 32
M  V30 32 1 31 33
M  V30 33 1 32 34
M  V30 34 1 33 35
M  V30 35 1 34 36
M  V30 36 1 6 7
M  V30 37 2 10 12
M  V30 38 1 17 19
M  V30 39 1 24 25
M  V30 40 1 35 36
M  V30 END BOND
M  V30 END CTAB
M  END
>  <Column 1>
303

>  <Column 2>
PandemicResponseBox - Plate D

>  <Column 3>
G09

>  <Column 4>
MMV1580489

>  <Column 5>
10 mM

>  <Column 6>
ANTIVIRALS

>  <Column 7>
1

>  <Column 8>
Iodide

>  <Column 9>
UCB-35625

>  <Column 10>
CC[N+]1(CCC(CC1)NC(=O)C2C3=C(OC4=C2C=C(Cl)C=C4)C=CC(=C3)Cl)C\C5=C\CCCCCC5

>  <Column 11>
CHEMBL331897

>  <Column 12>


>  <Column 13>
655.4

>  <Column 14>
C30 H37 Cl2 N2 O2

>  <Tox-Glu>
ATCTOX

>  <Column 15>


>  <Column 16>
101 

>  <Column 17>
88 

>  <Column 18>
1 

>  <Column 19>


>  <Tox-Gal>
CTOXGAL

>  <Column 20>


>  <Column 21>
100 

>  <Column 22>
67 

>  <Column 23>
1 

>  <Column 24>


>  <Column 25>


>  <PAMPA>
PAMPA

>  <Column 26>
0

>  <Column 27>


>  <Column 28>


>  <Mouse>
ATMETMOU

>  <Column 29>
86

>  <Column 30>


$$$$
Compound 305
Actelion Java MolfileCreator 2.0

  0  0  0  0  0  0              0 V3000
M  V30 BEGIN CTAB
M  V30 COUNTS 18 19 0 0 0
M  V30 BEGIN ATOM
M  V30 1 Cl 6.1312 3.1739 0.0 0
M  V30 2 C 5.5211 1.8036 0.0 0
M  V30 3 S 4.0539 1.4917 0.0 0
M  V30 4 C 6.2711 0.5046 0.0 0
M  V30 5 C 3.8971 0.0 0.0 0
M  V30 6 C 5.2674 -0.6101 0.0 0
M  V30 7 S 2.598 -0.75 0.0 0
M  V30 8 O 1.848 -2.049 0.0 0
M  V30 9 O 3.348 -2.049 0.0 0
M  V30 10 N 1.299 0.0 0.0 0
M  V30 11 C 0.0 -0.75 0.0 0
M  V30 12 C -1.299 0.0 0.0 0
M  V30 13 C 0.0 -2.25 0.0 0
M  V30 14 N -2.598 -0.75 0.0 0
M  V30 15 C -1.299 -3.0 0.0 0
M  V30 16 C -2.598 -2.25 0.0 0
M  V30 17 O -3.8971 -3.0 0.0 0
M  V30 18 C -3.8971 -4.5 0.0 0
M  V30 END ATOM
M  V30 BEGIN BOND
M  V30 1 1 1 2
M  V30 2 1 2 3
M  V30 3 2 2 4
M  V30 4 1 3 5
M  V30 5 1 4 6
M  V30 6 1 5 7
M  V30 7 2 7 8
M  V30 8 2 7 9
M  V30 9 1 7 10
M  V30 10 1 10 11
M  V30 11 2 11 12
M  V30 12 1 11 13
M  V30 13 1 12 14
M  V30 14 2 13 15
M  V30 15 2 14 16
M  V30 16 1 16 17
M  V30 17 1 17 18
M  V30 18 2 5 6
M  V30 19 1 15 16
M  V30 END BOND
M  V30 END CTAB
M  END
>  <Column 1>
304

>  <Column 2>
PandemicResponseBox - Plate D

>  <Column 3>
H09

>  <Column 4>
MMV1580499

>  <Column 5>
10 mM

>  <Column 6>
ANTIVIRALS

>  <Column 7>


>  <Column 8>
None

>  <Column 9>


>  <Column 10>
ClC1=CC=C(S1)[S](=O)(=O)NC2=CN=C(OC)C=C2

>  <Column 11>
CHEMBL1579180

>  <Column 12>


>  <Column 13>
304.8

>  <Column 14>
C10 H9 Cl N2 O3 S2

>  <Tox-Glu>
ATCTOX

>  <Column 15>


>  <Column 16>
97 

>  <Column 17>
106 

>  <Column 18>
98 

>  <Column 19>


>  <Tox-Gal>
CTOXGAL

>  <Column 20>


>  <Column 21>
98 

>  <Column 22>
92 

>  <Column 23>
101 

>  <Column 24>


>  <Column 25>


>  <PAMPA>
PAMPA

>  <Column 26>
140

>  <Column 27>


>  <Column 28>


>  <Mouse>
ATMETMOU

>  <Column 29>
65

>  <Column 30>


$$$$
Compound 306
Actelion Java MolfileCreator 2.0

  0  0  0  0  0  0              0 V3000
M  V30 BEGIN CTAB
M  V30 COUNTS 18 20 0 0 0
M  V30 BEGIN ATOM
M  V30 1 S 4.4151 -1.809 0.0 0
M  V30 2 C 5.0029 -1.0 0.0 0
M  V30 3 C 3.4641 -1.5 0.0 0
M  V30 4 C 6.0019 -1.0448 0.0 0
M  V30 5 C 4.4151 -0.1909 0.0 0
M  V30 6 C 3.4641 -0.5 0.0 0
M  V30 7 C 2.598 -2.0 0.0 0
M  V30 8 O 6.3949 -1.9643 0.0 0
M  V30 9 N 6.6598 -0.2917 0.0 0
M  V30 10 N 4.6811 0.7729 0.0 0
M  V30 11 C 2.598 0.0 0.0 0
M  V30 12 C 1.732 -1.4999 0.0 0
M  V30 13 C 6.4813 0.6921 0.0 0
M  V30 14 C 5.6007 1.166 0.0 0 CFG=2
M  V30 15 C 1.732 -0.5 0.0 0
M  V30 16 C 5.6455 2.1649 0.0 0
M  V30 17 O 0.866 0.0 0.0 0
M  V30 18 C 0.0 -0.5 0.0 0
M  V30 END ATOM
M  V30 BEGIN BOND
M  V30 1 1 1 2
M  V30 2 1 1 3
M  V30 3 1 2 4
M  V30 4 2 2 5
M  V30 5 2 3 6
M  V30 6 1 3 7
M  V30 7 2 4 8
M  V30 8 1 4 9
M  V30 9 1 5 10
M  V30 10 1 6 11
M  V30 11 2 7 12
M  V30 12 1 9 13
M  V30 13 1 14 10
M  V30 14 2 11 15
M  V30 15 1 14 16 CFG=1
M  V30 16 1 15 17
M  V30 17 1 17 18
M  V30 18 1 5 6
M  V30 19 1 12 15
M  V30 20 1 13 14
M  V30 END BOND
M  V30 BEGIN COLLECTION
M  V30 MDLV30/STERAC1 ATOMS=(1 14)
M  V30 END COLLECTION
M  V30 END CTAB
M  END
>  <Column 1>
305

>  <Column 2>
PandemicResponseBox - Plate D

>  <Column 3>
A10

>  <Column 4>
MMV1782115

>  <Column 5>
10 mM

>  <Column 6>
ANTIVIRALS

>  <Column 7>


>  <Column 8>
None

>  <Column 9>


>  <Column 10>
S2C1=C(NC(C)CNC1=O)C3=C2C=CC(=C3)OC

>  <Column 11>
NA for racemic

>  <Column 12>
WO�2002014324�

>  <Column 13>
262.3

>  <Column 14>
C13 H14 N2 O2 S

>  <Tox-Glu>
ATCTOX

>  <Column 15>


>  <Column 16>
72 

>  <Column 17>
69 

>  <Column 18>
72 

>  <Column 19>


>  <Tox-Gal>
CTOXGAL

>  <Column 20>


>  <Column 21>
91 

>  <Column 22>
83 

>  <Column 23>
101 

>  <Column 24>


>  <Column 25>


>  <PAMPA>
PAMPA

>  <Column 26>
164

>  <Column 27>


>  <Column 28>


>  <Mouse>
ATMETMOU

>  <Column 29>
374

>  <Column 30>


$$$$
Compound 307
Actelion Java MolfileCreator 2.0

  0  0  0  0  0  0              0 V3000
M  V30 BEGIN CTAB
M  V30 COUNTS 27 31 0 0 0
M  V30 BEGIN ATOM
M  V30 1 F 4.6961 2.366 0.0 0
M  V30 2 C 5.1961 1.5 0.0 0
M  V30 3 F 6.0621 2.0 0.0 0
M  V30 4 F 5.6961 0.6339 0.0 0
M  V30 5 C 4.3301 1.0 0.0 0
M  V30 6 C 3.4641 1.5 0.0 0
M  V30 7 C 4.3301 0.0 0.0 0
M  V30 8 C 2.598 0.9999 0.0 0
M  V30 9 C 3.4641 -0.4999 0.0 0
M  V30 10 C 2.598 0.0 0.0 0
M  V30 11 C 1.732 -0.5 0.0 0
M  V30 12 O 1.732 -1.5 0.0 0
M  V30 13 N 0.866 0.0 0.0 0
M  V30 14 N 0.0 -0.5 0.0 0
M  V30 15 C -0.1045 -1.4945 0.0 0
M  V30 16 C -0.9135 -0.0932 0.0 0
M  V30 17 O 0.6386 -2.1636 0.0 0
M  V30 18 C -1.0826 -1.7024 0.0 0 CFG=1
M  V30 19 O -1.1214 0.8848 0.0 0
M  V30 20 C -1.5826 -0.8364 0.0 0 CFG=2
M  V30 21 C -2.0826 -2.8571 0.0 0
M  V30 22 C -3.0826 -1.125 0.0 0
M  V30 23 C -1.7002 -1.8893 0.0 0
M  V30 24 C -3.0826 -2.8571 0.0 0 CFG=1
M  V30 25 C -2.0532 -1.2777 0.0 0
M  V30 26 C -3.5826 -1.9911 0.0 0 CFG=2
M  V30 27 C -4.0826 -2.8571 0.0 0
M  V30 END ATOM
M  V30 BEGIN BOND
M  V30 1 1 1 2
M  V30 2 1 2 3
M  V30 3 1 2 4
M  V30 4 1 2 5
M  V30 5 2 5 6
M  V30 6 1 5 7
M  V30 7 1 6 8
M  V30 8 2 7 9
M  V30 9 2 8 10
M  V30 10 1 10 11
M  V30 11 2 11 12
M  V30 12 1 11 13
M  V30 13 1 13 14
M  V30 14 1 14 15
M  V30 15 1 14 16
M  V30 16 2 15 17
M  V30 17 1 18 15 CFG=3
M  V30 18 2 16 19
M  V30 19 1 20 16 CFG=3
M  V30 20 1 18 21
M  V30 21 1 20 22
M  V30 22 1 21 23
M  V30 23 1 24 21
M  V30 24 1 22 25
M  V30 25 1 26 22
M  V30 26 1 24 27 CFG=3
M  V30 27 1 9 10
M  V30 28 1 18 20
M  V30 29 2 23 25
M  V30 30 1 24 26
M  V30 31 1 26 27 CFG=3
M  V30 END BOND
M  V30 BEGIN COLLECTION
M  V30 MDLV30/STEABS ATOMS=(4 18 20 24 26)
M  V30 END COLLECTION
M  V30 END CTAB
M  END
>  <Column 1>
306

>  <Column 2>
PandemicResponseBox - Plate D

>  <Column 3>
B10

>  <Column 4>
MMV1782114

>  <Column 5>
10 mM

>  <Column 6>
ANTIVIRALS

>  <Column 7>


>  <Column 8>
None

>  <Column 9>


>  <Column 10>
FC(F)(F)c1ccc(cc1)C(=O)NN2C(=O)[C@@H]3C4C=CC([C@H]5C[C@@H]45)[C@@H]3C2=O

>  <Column 11>
CHEMBL1242629

>  <Column 12>


>  <Column 13>
376.3

>  <Column 14>
C19 H15 F3 N2 O3

>  <Tox-Glu>
ATCTOX

>  <Column 15>


>  <Column 16>
99 

>  <Column 17>
106 

>  <Column 18>
101 

>  <Column 19>


>  <Tox-Gal>
CTOXGAL

>  <Column 20>


>  <Column 21>
99 

>  <Column 22>
92 

>  <Column 23>
99 

>  <Column 24>


>  <Column 25>


>  <PAMPA>
PAMPA

>  <Column 26>
undetected

>  <Column 27>
large blank peak

>  <Column 28>


>  <Mouse>
ATMETMOU

>  <Column 29>
7

>  <Column 30>


$$$$
Compound 308
Actelion Java MolfileCreator 2.0

  0  0  0  0  0  0              0 V3000
M  V30 BEGIN CTAB
M  V30 COUNTS 19 21 0 0 0
M  V30 BEGIN ATOM
M  V30 1 O 1.732 -0.5 0.0 0
M  V30 2 C 0.866 0.0 0.0 0
M  V30 3 O 0.866 1.0 0.0 0
M  V30 4 C 0.0 -0.5 0.0 0
M  V30 5 C -0.866 0.0 0.0 0
M  V30 6 C 0.0 -1.4999 0.0 0
M  V30 7 C -1.732 -0.4999 0.0 0
M  V30 8 C -0.866 1.0 0.0 0
M  V30 9 C -0.866 -1.9999 0.0 0
M  V30 10 N -1.732 -1.4999 0.0 0
M  V30 11 C -2.598 0.0 0.0 0
M  V30 12 C -1.732 1.5 0.0 0
M  V30 13 C -0.866 -2.9999 0.0 0
M  V30 14 C -2.598 1.0 0.0 0
M  V30 15 C -1.732 -3.4999 0.0 0
M  V30 16 C 0.0 -3.4999 0.0 0
M  V30 17 C -1.732 -4.4999 0.0 0
M  V30 18 C 0.0 -4.4999 0.0 0
M  V30 19 C -0.866 -4.9999 0.0 0
M  V30 END ATOM
M  V30 BEGIN BOND
M  V30 1 2 1 2
M  V30 2 1 2 3
M  V30 3 1 2 4
M  V30 4 1 4 5
M  V30 5 2 4 6
M  V30 6 1 5 7
M  V30 7 2 5 8
M  V30 8 1 6 9
M  V30 9 1 7 10
M  V30 10 2 7 11
M  V30 11 1 8 12
M  V30 12 1 9 13
M  V30 13 1 11 14
M  V30 14 2 13 15
M  V30 15 1 13 16
M  V30 16 1 15 17
M  V30 17 2 16 18
M  V30 18 2 17 19
M  V30 19 2 9 10
M  V30 20 2 12 14
M  V30 21 1 18 19
M  V30 END BOND
M  V30 END CTAB
M  END
>  <Column 1>
307

>  <Column 2>
PandemicResponseBox - Plate D

>  <Column 3>
C10

>  <Column 4>
MMV018362

>  <Column 5>
10 mM

>  <Column 6>
ANTIVIRALS

>  <Column 7>


>  <Column 8>
None

>  <Column 9>
Cinchophen

>  <Column 10>
O=C(O)C1=CC(=NC2=CC=CC=C12)C3=CC=CC=C3

>  <Column 11>
CHEMBL348000

>  <Column 12>


>  <Column 13>
249.3

>  <Column 14>
C16H11NO2

>  <Tox-Glu>
ATCTOX

>  <Column 15>


>  <Column 16>
101 

>  <Column 17>
106 

>  <Column 18>
93 

>  <Column 19>


>  <Tox-Gal>
CTOXGAL

>  <Column 20>


>  <Column 21>
99 

>  <Column 22>
96 

>  <Column 23>
96 

>  <Column 24>


>  <Column 25>


>  <PAMPA>
PAMPA

>  <Column 26>
5

>  <Column 27>


>  <Column 28>


>  <Mouse>
ATMETMOU

>  <Column 29>
7

>  <Column 30>


$$$$
Compound 309
Actelion Java MolfileCreator 2.0

  0  0  0  0  0  0              0 V3000
M  V30 BEGIN CTAB
M  V30 COUNTS 28 30 0 0 0
M  V30 BEGIN ATOM
M  V30 1 F 9.6099 2.7264 0.0 0
M  V30 2 C 9.5054 1.7318 0.0 0
M  V30 3 F 10.4999 1.6273 0.0 0
M  V30 4 F 9.4008 0.7373 0.0 0
M  V30 5 C 8.5108 1.8364 0.0 0
M  V30 6 O 8.0108 2.7024 0.0 0
M  V30 7 N 7.8417 1.0932 0.0 0
M  V30 8 N 7.0327 2.4945 0.0 0
M  V30 9 C 6.9282 1.4999 0.0 0
M  V30 10 C 6.0621 0.9999 0.0 0
M  V30 11 C 5.1961 1.4999 0.0 0
M  V30 12 C 6.0621 0.0 0.0 0
M  V30 13 C 4.3301 0.9999 0.0 0
M  V30 14 C 5.1961 -0.5 0.0 0
M  V30 15 C 4.3301 0.0 0.0 0
M  V30 16 C 3.4641 1.5 0.0 0
M  V30 17 C 5.1961 -1.5 0.0 0
M  V30 18 O 3.4641 -0.5 0.0 0
M  V30 19 C 2.598 0.0 0.0 0
M  V30 20 C 1.732 -0.5 0.0 0
M  V30 21 C 0.866 0.0 0.0 0
M  V30 22 C 0.0 -0.5 0.0 0
M  V30 23 O -0.9135 -0.0932 0.0 0
M  V30 24 C -0.1045 -1.4945 0.0 0
M  V30 25 N -1.5826 -0.8364 0.0 0
M  V30 26 C -1.0826 -1.7024 0.0 0
M  V30 27 C -1.4894 -2.6159 0.0 0
M  V30 28 C -0.9016 -3.4249 0.0 0
M  V30 END ATOM
M  V30 BEGIN BOND
M  V30 1 1 1 2
M  V30 2 1 2 3
M  V30 3 1 2 4
M  V30 4 1 2 5
M  V30 5 1 5 6
M  V30 6 2 5 7
M  V30 7 1 6 8
M  V30 8 1 7 9
M  V30 9 1 9 10
M  V30 10 2 10 11
M  V30 11 1 10 12
M  V30 12 1 11 13
M  V30 13 2 12 14
M  V30 14 2 13 15
M  V30 15 1 13 16
M  V30 16 1 14 17
M  V30 17 1 15 18
M  V30 18 1 18 19
M  V30 19 1 19 20
M  V30 20 1 20 21
M  V30 21 1 21 22
M  V30 22 1 22 23
M  V30 23 2 22 24
M  V30 24 1 23 25
M  V30 25 1 24 26
M  V30 26 1 26 27
M  V30 27 1 27 28
M  V30 28 2 8 9
M  V30 29 1 14 15
M  V30 30 2 25 26
M  V30 END BOND
M  V30 END CTAB
M  END
>  <Column 1>
308

>  <Column 2>
PandemicResponseBox - Plate D

>  <Column 3>
D10

>  <Column 4>
MMV1634556

>  <Column 5>
10 mM

>  <Column 6>
ANTIVIRALS

>  <Column 7>


>  <Column 8>
None

>  <Column 9>


>  <Column 10>
FC(F)(F)C1=NC(=NO1)C3=CC(=C(OCCCC2=CC(=NO2)CC)C(=C3)C)C

>  <Column 11>
CHEMBL285833

>  <Column 12>
Journal of Medicinal Chemistry�(1995),�38(8),�1355-71,US 5464848

>  <Column 13>
395.4

>  <Column 14>
C19 H20 F3 N3 O3

>  <Tox-Glu>
ATCTOX

>  <Column 15>


>  <Column 16>
97 

>  <Column 17>
94 

>  <Column 18>
86 

>  <Column 19>


>  <Tox-Gal>
CTOXGAL

>  <Column 20>


>  <Column 21>
99 

>  <Column 22>
68 

>  <Column 23>
61 

>  <Column 24>


>  <Column 25>


>  <PAMPA>
PAMPA

>  <Column 26>
undetected

>  <Column 27>
low sensitivity

>  <Column 28>


>  <Mouse>
ATMETMOU

>  <Column 29>


>  <Column 30>
Not determined; Low sensitivity

$$$$
Compound 310
Actelion Java MolfileCreator 2.0

  0  0  0  0  0  0              0 V3000
M  V30 BEGIN CTAB
M  V30 COUNTS 26 27 0 0 0
M  V30 BEGIN ATOM
M  V30 1 O 9.0932 0.0 0.0 0
M  V30 2 C 10.3923 -0.75 0.0 0
M  V30 3 C 7.7942 -0.75 0.0 0
M  V30 4 C 10.3923 -2.25 0.0 0
M  V30 5 C 11.6913 0.0 0.0 0
M  V30 6 C 6.4951 0.0 0.0 0
M  V30 7 C 11.6913 -3.0 0.0 0
M  V30 8 C 9.0932 -2.9999 0.0 0
M  V30 9 C 12.9903 -0.75 0.0 0
M  V30 10 C 5.1961 -0.75 0.0 0
M  V30 11 C 12.9903 -2.25 0.0 0
M  V30 12 C 14.2894 0.0 0.0 0
M  V30 13 C 3.8971 0.0 0.0 0
M  V30 14 C 2.598 -0.75 0.0 0
M  V30 15 C 1.299 0.0 0.0 0
M  V30 16 N 0.0 -0.75 0.0 0
M  V30 17 C -1.299 0.0 0.0 0 CFG=1
M  V30 18 C 0.0 -2.2499 0.0 0
M  V30 19 C -2.598 -0.7499 0.0 0 CFG=1
M  V30 20 C -1.299 1.5 0.0 0
M  V30 21 C -1.299 -2.9999 0.0 0 CFG=1
M  V30 22 O -3.8971 0.0 0.0 0
M  V30 23 C -2.598 -2.2499 0.0 0 CFG=1
M  V30 24 O -2.598 2.25 0.0 0
M  V30 25 O -1.299 -4.4999 0.0 0
M  V30 26 O -3.8971 -2.9999 0.0 0
M  V30 END ATOM
M  V30 BEGIN BOND
M  V30 1 1 1 2
M  V30 2 1 1 3
M  V30 3 2 2 4
M  V30 4 1 2 5
M  V30 5 1 3 6
M  V30 6 1 4 7
M  V30 7 1 4 8
M  V30 8 2 5 9
M  V30 9 1 6 10
M  V30 10 2 7 11
M  V30 11 1 9 12
M  V30 12 1 10 13
M  V30 13 1 13 14
M  V30 14 1 14 15
M  V30 15 1 15 16
M  V30 16 1 17 16
M  V30 17 1 16 18
M  V30 18 1 19 17
M  V30 19 1 17 20 CFG=1
M  V30 20 1 21 18
M  V30 21 1 19 22 CFG=3
M  V30 22 1 23 19
M  V30 23 1 20 24
M  V30 24 1 21 25 CFG=3
M  V30 25 1 23 26 CFG=1
M  V30 26 1 9 11
M  V30 27 1 21 23
M  V30 END BOND
M  V30 BEGIN COLLECTION
M  V30 MDLV30/STEABS ATOMS=(4 17 19 21 23)
M  V30 END COLLECTION
M  V30 END CTAB
M  END
>  <Column 1>
309

>  <Column 2>
PandemicResponseBox - Plate D

>  <Column 3>
E10

>  <Column 4>
MMV1634401

>  <Column 5>
10 mM

>  <Column 6>
ANTIVIRALS

>  <Column 7>


>  <Column 8>
None

>  <Column 9>


>  <Column 10>
O(C1=C(C=CC(=C1)C)C)CCCCCCN2[C@@H]([C@@H](O)[C@H](O)[C@H](C2)O)CO

>  <Column 11>
CHEMBL1652119

>  <Column 12>


>  <Column 13>
367.5

>  <Column 14>
C20 H33 N O5

>  <Tox-Glu>
ATCTOX

>  <Column 15>


>  <Column 16>
94 

>  <Column 17>
91 

>  <Column 18>
68 

>  <Column 19>


>  <Tox-Gal>
CTOXGAL

>  <Column 20>


>  <Column 21>
101 

>  <Column 22>
97 

>  <Column 23>
91 

>  <Column 24>


>  <Column 25>


>  <PAMPA>
PAMPA

>  <Column 26>
28

>  <Column 27>


>  <Column 28>


>  <Mouse>
ATMETMOU

>  <Column 29>
-5

>  <Column 30>
Large variations

$$$$
Compound 311
Actelion Java MolfileCreator 2.0

  0  0  0  0  0  0              0 V3000
M  V30 BEGIN CTAB
M  V30 COUNTS 26 28 0 0 0
M  V30 BEGIN ATOM
M  V30 1 S 6.0621 -1.9999 0.0 0
M  V30 2 O 5.5621 -2.866 0.0 0
M  V30 3 O 6.5621 -1.1339 0.0 0
M  V30 4 C 5.1961 -1.4999 0.0 0
M  V30 5 C 6.9282 -2.5 0.0 0
M  V30 6 C 5.1961 -0.5 0.0 0
M  V30 7 C 4.3301 -1.9999 0.0 0
M  V30 8 C 4.3301 0.0 0.0 0
M  V30 9 C 3.4641 -1.5 0.0 0
M  V30 10 C 3.4641 -0.5 0.0 0
M  V30 11 O 2.598 0.0 0.0 0
M  V30 12 C 1.732 -0.5 0.0 0
M  V30 13 C 0.866 0.0 0.0 0
M  V30 14 C 0.0 -0.5 0.0 0
M  V30 15 C -0.866 0.0 0.0 0
M  V30 16 C 0.0 -1.4999 0.0 0
M  V30 17 C -1.732 -0.4999 0.0 0
M  V30 18 C -0.866 -1.9999 0.0 0
M  V30 19 N -1.732 -1.4999 0.0 0
M  V30 20 C -2.598 -1.9999 0.0 0
M  V30 21 N -3.4641 -1.4999 0.0 0
M  V30 22 C -2.598 -2.9999 0.0 0
M  V30 23 N -4.3301 -1.9999 0.0 0
M  V30 24 C -3.4641 -3.4999 0.0 0
M  V30 25 C -4.3301 -2.9999 0.0 0
M  V30 26 C -5.1961 -3.4999 0.0 0
M  V30 END ATOM
M  V30 BEGIN BOND
M  V30 1 2 1 2
M  V30 2 2 1 3
M  V30 3 1 1 4
M  V30 4 1 1 5
M  V30 5 2 4 6
M  V30 6 1 4 7
M  V30 7 1 6 8
M  V30 8 2 7 9
M  V30 9 2 8 10
M  V30 10 1 10 11
M  V30 11 1 11 12
M  V30 12 1 12 13
M  V30 13 1 13 14
M  V30 14 1 14 15
M  V30 15 1 14 16
M  V30 16 1 15 17
M  V30 17 1 16 18
M  V30 18 1 17 19
M  V30 19 1 19 20
M  V30 20 2 20 21
M  V30 21 1 20 22
M  V30 22 1 21 23
M  V30 23 2 22 24
M  V30 24 2 23 25
M  V30 25 1 25 26
M  V30 26 1 9 10
M  V30 27 1 18 19
M  V30 28 1 24 25
M  V30 END BOND
M  V30 END CTAB
M  END
>  <Column 1>
310

>  <Column 2>
PandemicResponseBox - Plate D

>  <Column 3>
F10

>  <Column 4>
MMV1634394

>  <Column 5>
10 mM

>  <Column 6>
ANTIVIRALS

>  <Column 7>


>  <Column 8>
None

>  <Column 9>


>  <Column 10>
[S](=O)(=O)(C3=CC=C(OCCC2CCN(C1=NN=C(C)C=C1)CC2)C=C3)C

>  <Column 11>
CHEMBL1835916

>  <Column 12>


>  <Column 13>
375.5

>  <Column 14>
C19 H25 N3 O3 S

>  <Tox-Glu>
ATCTOX

>  <Column 15>


>  <Column 16>
101 

>  <Column 17>
92 

>  <Column 18>
76 

>  <Column 19>


>  <Tox-Gal>
CTOXGAL

>  <Column 20>


>  <Column 21>
101 

>  <Column 22>
68 

>  <Column 23>
1 

>  <Column 24>


>  <Column 25>


>  <PAMPA>
PAMPA

>  <Column 26>
252

>  <Column 27>


>  <Column 28>


>  <Mouse>
ATMETMOU

>  <Column 29>
14

>  <Column 30>


$$$$
Compound 312
Actelion Java MolfileCreator 2.0

  0  0  0  0  0  0              0 V3000
M  V30 BEGIN CTAB
M  V30 COUNTS 21 22 0 0 0
M  V30 BEGIN ATOM
M  V30 1 F 4.1961 2.5 0.0 0
M  V30 2 C 5.1961 2.4999 0.0 0
M  V30 3 F 5.1961 3.4999 0.0 0
M  V30 4 F 6.1961 2.4999 0.0 0
M  V30 5 C 5.1961 1.4999 0.0 0
M  V30 6 C 4.3301 1.0 0.0 0
M  V30 7 C 6.0621 0.9999 0.0 0
M  V30 8 C 4.3301 0.0 0.0 0
M  V30 9 C 6.0621 0.0 0.0 0
M  V30 10 C 3.4641 -0.5 0.0 0
M  V30 11 C 5.1961 -0.5 0.0 0
M  V30 12 O 3.4641 -1.5 0.0 0
M  V30 13 N 2.598 0.0 0.0 0
M  V30 14 C 1.732 -0.5 0.0 0
M  V30 15 C 0.866 0.0 0.0 0
M  V30 16 N 0.0 -0.5 0.0 0
M  V30 17 C -0.866 0.0 0.0 0
M  V30 18 C 0.0 -1.4999 0.0 0
M  V30 19 C -1.732 -0.4999 0.0 0
M  V30 20 C -0.866 -1.9999 0.0 0
M  V30 21 C -1.732 -1.4999 0.0 0
M  V30 END ATOM
M  V30 BEGIN BOND
M  V30 1 1 1 2
M  V30 2 1 2 3
M  V30 3 1 2 4
M  V30 4 1 2 5
M  V30 5 2 5 6
M  V30 6 1 5 7
M  V30 7 1 6 8
M  V30 8 2 7 9
M  V30 9 1 8 10
M  V30 10 2 8 11
M  V30 11 2 10 12
M  V30 12 1 10 13
M  V30 13 1 13 14
M  V30 14 1 14 15
M  V30 15 1 15 16
M  V30 16 1 16 17
M  V30 17 1 16 18
M  V30 18 1 17 19
M  V30 19 1 18 20
M  V30 20 1 19 21
M  V30 21 1 9 11
M  V30 22 1 20 21
M  V30 END BOND
M  V30 END CTAB
M  END
>  <Column 1>
311

>  <Column 2>
PandemicResponseBox - Plate D

>  <Column 3>
G10

>  <Column 4>
MMV1633964

>  <Column 5>
10 mM

>  <Column 6>
ANTIVIRALS

>  <Column 7>


>  <Column 8>
None

>  <Column 9>


>  <Column 10>
FC(F)(F)C1=CC(=CC=C1)C(=O)NCCN2CCCCC2

>  <Column 11>
NA

>  <Column 12>
Journal of Virology (1999), 73(1), 140-151,Current Pharmaceutical Design (2015), 21(38), 5573-5588.

>  <Column 13>
300.3

>  <Column 14>
C15 H19 F3 N2 O

>  <Tox-Glu>
ATCTOX

>  <Column 15>


>  <Column 16>
97 

>  <Column 17>
96 

>  <Column 18>
80 

>  <Column 19>


>  <Tox-Gal>
CTOXGAL

>  <Column 20>


>  <Column 21>
93 

>  <Column 22>
88 

>  <Column 23>
87 

>  <Column 24>


>  <Column 25>


>  <PAMPA>
PAMPA

>  <Column 26>
407

>  <Column 27>


>  <Column 28>


>  <Mouse>
ATMETMOU

>  <Column 29>
-6

>  <Column 30>


$$$$
Compound 313
Actelion Java MolfileCreator 2.0

  0  0  0  0  0  0              0 V3000
M  V30 BEGIN CTAB
M  V30 COUNTS 29 33 0 0 0
M  V30 BEGIN ATOM
M  V30 1 F 2.598 1.0 0.0 0
M  V30 2 C 2.598 0.0 0.0 0
M  V30 3 C 1.732 -0.5 0.0 0
M  V30 4 C 3.4641 -0.4999 0.0 0
M  V30 5 N 1.732 -1.5 0.0 0
M  V30 6 N 0.866 0.0 0.0 0
M  V30 7 N 3.4641 -1.4999 0.0 0
M  V30 8 C 2.598 -1.9999 0.0 0
M  V30 9 C 0.0 -0.5 0.0 0 CFG=2
M  V30 10 C 2.598 -2.9999 0.0 0
M  V30 11 C -0.866 0.0 0.0 0 CFG=1
M  V30 12 C 0.0 -1.4999 0.0 0
M  V30 13 C 1.789 -3.5877 0.0 0
M  V30 14 C 3.407 -3.5877 0.0 0
M  V30 15 C -0.866 1.0 0.0 0
M  V30 16 C -1.732 -0.4999 0.0 0
M  V30 17 C -0.956 -1.9063 0.0 0
M  V30 18 C -1.299 -2.7499 0.0 0
M  V30 19 C 2.098 -4.5388 0.0 0
M  V30 20 C 0.8109 -3.3798 0.0 0
M  V30 21 N 3.098 -4.5388 0.0 0
M  V30 22 O 0.0 1.5 0.0 0
M  V30 23 O -1.732 1.5 0.0 0
M  V30 24 C -1.6059 -1.5312 0.0 0
M  V30 25 C -2.165 -2.2499 0.0 0
M  V30 26 N 1.4289 -5.2819 0.0 0
M  V30 27 C 0.1417 -4.123 0.0 0
M  V30 28 C 0.4507 -5.074 0.0 0
M  V30 29 F -0.8363 -3.9151 0.0 0
M  V30 END ATOM
M  V30 BEGIN BOND
M  V30 1 1 1 2
M  V30 2 2 2 3
M  V30 3 1 2 4
M  V30 4 1 3 5
M  V30 5 1 3 6
M  V30 6 2 4 7
M  V30 7 2 5 8
M  V30 8 1 9 6 CFG=1
M  V30 9 1 8 10
M  V30 10 1 11 9
M  V30 11 1 9 12
M  V30 12 1 10 13
M  V30 13 2 10 14
M  V30 14 1 11 15 CFG=3
M  V30 15 1 11 16
M  V30 16 1 12 17
M  V30 17 1 12 18
M  V30 18 2 13 19
M  V30 19 1 13 20
M  V30 20 1 14 21
M  V30 21 2 15 22
M  V30 22 1 15 23
M  V30 23 1 16 24
M  V30 24 1 16 25
M  V30 25 1 19 26
M  V30 26 2 20 27
M  V30 27 2 26 28
M  V30 28 1 27 29
M  V30 29 1 7 8
M  V30 30 1 17 24
M  V30 31 1 18 25
M  V30 32 1 19 21
M  V30 33 1 27 28
M  V30 END BOND
M  V30 BEGIN COLLECTION
M  V30 MDLV30/STEABS ATOMS=(2 9 11)
M  V30 END COLLECTION
M  V30 END CTAB
M  END
>  <Column 1>
312

>  <Column 2>
PandemicResponseBox - Plate D

>  <Column 3>
H10

>  <Column 4>
MMV1593516

>  <Column 5>
10 mM

>  <Column 6>
ANTIVIRALS

>  <Column 7>


>  <Column 8>
None

>  <Column 9>
JNJ-872

>  <Column 10>
FC3=C(N=C(C1=C[NH]C2=C1C=C(F)C=N2)N=C3)N[C@@H]4[C@@H](C(=O)O)C5CCC4CC5

>  <Column 11>
CHEMBL3318007

>  <Column 12>


>  <Column 13>
399.4

>  <Column 14>
C20 H19 F2 N5 O2

>  <Tox-Glu>
ATCTOX

>  <Column 15>


>  <Column 16>
100 

>  <Column 17>
105 

>  <Column 18>
98 

>  <Column 19>


>  <Tox-Gal>
CTOXGAL

>  <Column 20>


>  <Column 21>
96 

>  <Column 22>
96 

>  <Column 23>
99 

>  <Column 24>


>  <Column 25>


>  <PAMPA>
PAMPA

>  <Column 26>
152

>  <Column 27>


>  <Column 28>


>  <Mouse>
ATMETMOU

>  <Column 29>
-15

>  <Column 30>


$$$$
Compound 314
Actelion Java MolfileCreator 2.0

  0  0  0  0  0  0              0 V3000
M  V30 BEGIN CTAB
M  V30 COUNTS 20 20 0 0 0
M  V30 BEGIN ATOM
M  V30 1 O 10.3923 1.5 0.0 0
M  V30 2 C 9.5262 1.0 0.0 0 CFG=2
M  V30 3 C 8.6602 1.5 0.0 0 CFG=1
M  V30 4 C 9.5262 0.0 0.0 0 CFG=2
M  V30 5 O 8.6602 2.5 0.0 0
M  V30 6 C 7.7942 1.0 0.0 0 CFG=1
M  V30 7 O 10.3923 -0.4999 0.0 0
M  V30 8 C 8.6602 -0.4999 0.0 0
M  V30 9 N 7.7942 0.0 0.0 0
M  V30 10 C 6.9282 1.4999 0.0 0
M  V30 11 C 6.9282 -0.5 0.0 0
M  V30 12 O 6.0621 1.0 0.0 0
M  V30 13 C 6.0621 0.0 0.0 0
M  V30 14 C 5.1961 -0.5 0.0 0
M  V30 15 C 4.3301 0.0 0.0 0
M  V30 16 C 3.4641 -0.5 0.0 0
M  V30 17 C 2.598 0.0 0.0 0
M  V30 18 C 1.732 -0.5 0.0 0
M  V30 19 C 0.866 0.0 0.0 0
M  V30 20 C 0.0 -0.5 0.0 0
M  V30 END ATOM
M  V30 BEGIN BOND
M  V30 1 1 2 1 CFG=1
M  V30 2 1 3 2
M  V30 3 1 4 2
M  V30 4 1 3 5 CFG=3
M  V30 5 1 6 3
M  V30 6 1 4 7 CFG=3
M  V30 7 1 4 8
M  V30 8 1 6 9
M  V30 9 1 6 10 CFG=1
M  V30 10 1 9 11
M  V30 11 1 10 12
M  V30 12 1 11 13
M  V30 13 1 13 14
M  V30 14 1 14 15
M  V30 15 1 15 16
M  V30 16 1 16 17
M  V30 17 1 17 18
M  V30 18 1 18 19
M  V30 19 1 19 20
M  V30 20 1 8 9
M  V30 END BOND
M  V30 BEGIN COLLECTION
M  V30 MDLV30/STEABS ATOMS=(4 2 3 4 6)
M  V30 END COLLECTION
M  V30 END CTAB
M  END
>  <Column 1>
313

>  <Column 2>
PandemicResponseBox - Plate D

>  <Column 3>
A11

>  <Column 4>
MMV1593513

>  <Column 5>
10 mM

>  <Column 6>
ANTIVIRALS

>  <Column 7>


>  <Column 8>
None

>  <Column 9>
N-Nonyldeoxynojirimycin

>  <Column 10>
O[C@@H]1[C@@H](O)[C@@H](N(CCCCCCCCC)C[C@H]1O)CO

>  <Column 11>
CHEMBL408500

>  <Column 12>


>  <Column 13>
289.4

>  <Column 14>
C15 H31 N O4

>  <Tox-Glu>
ATCTOX

>  <Column 15>


>  <Column 16>
97 

>  <Column 17>
100 

>  <Column 18>
86 

>  <Column 19>


>  <Tox-Gal>
CTOXGAL

>  <Column 20>


>  <Column 21>
99 

>  <Column 22>
100 

>  <Column 23>
102 

>  <Column 24>


>  <Column 25>


>  <PAMPA>
PAMPA

>  <Column 26>
34

>  <Column 27>


>  <Column 28>


>  <Mouse>
ATMETMOU

>  <Column 29>
-1

>  <Column 30>


$$$$
Compound 315
Actelion Java MolfileCreator 2.0

  0  0  0  0  0  0              0 V3000
M  V30 BEGIN CTAB
M  V30 COUNTS 23 23 0 0 0
M  V30 BEGIN ATOM
M  V30 1 O 1.917 4.2614 0.0 0
M  V30 2 C 1.5102 3.3478 0.0 0
M  V30 3 O 0.5157 3.2433 0.0 0
M  V30 4 C 2.098 2.5388 0.0 0 CFG=2
M  V30 5 C 1.789 1.5877 0.0 0 CFG=1
M  V30 6 C 3.098 2.5388 0.0 0
M  V30 7 O 0.838 1.2787 0.0 0
M  V30 8 C 2.598 1.0 0.0 0 CFG=2
M  V30 9 C 3.407 1.5877 0.0 0 CFG=2
M  V30 10 C 2.598 0.0 0.0 0 CFG=1
M  V30 11 N 4.3581 1.2787 0.0 0
M  V30 12 N 3.4641 -0.4999 0.0 0
M  V30 13 C 1.732 -0.4999 0.0 0
M  V30 14 C 5.1012 1.9478 0.0 0
M  V30 15 C 3.4641 -1.4999 0.0 0
M  V30 16 C 1.732 -1.5 0.0 0
M  V30 17 C 0.866 0.0 0.0 0
M  V30 18 N 4.8933 2.926 0.0 0
M  V30 19 N 6.0523 1.6388 0.0 0
M  V30 20 O 4.3301 -1.9999 0.0 0
M  V30 21 C 2.598 -2.0 0.0 0
M  V30 22 C 0.866 -2.0 0.0 0
M  V30 23 C 0.0 -0.5 0.0 0
M  V30 END ATOM
M  V30 BEGIN BOND
M  V30 1 2 1 2
M  V30 2 1 2 3
M  V30 3 1 4 2 CFG=1
M  V30 4 1 5 4
M  V30 5 1 4 6
M  V30 6 1 5 7 CFG=3
M  V30 7 1 8 5
M  V30 8 1 9 6
M  V30 9 1 8 10 CFG=3
M  V30 10 1 9 11 CFG=1
M  V30 11 1 10 12 CFG=1
M  V30 12 1 10 13
M  V30 13 1 11 14
M  V30 14 1 12 15
M  V30 15 1 13 16
M  V30 16 1 13 17
M  V30 17 2 14 18
M  V30 18 1 14 19
M  V30 19 2 15 20
M  V30 20 1 15 21
M  V30 21 1 16 22
M  V30 22 1 17 23
M  V30 23 1 8 9
M  V30 END BOND
M  V30 BEGIN COLLECTION
M  V30 MDLV30/STEABS ATOMS=(5 4 5 8 9 10)
M  V30 END COLLECTION
M  V30 END CTAB
M  END
>  <Column 1>
314

>  <Column 2>
PandemicResponseBox - Plate D

>  <Column 3>
B11

>  <Column 4>
MMV1593511

>  <Column 5>
10 mM

>  <Column 6>
ANTIVIRALS

>  <Column 7>
3

>  <Column 8>
Hydrate

>  <Column 9>
Peramivir

>  <Column 10>
CCC(CC)[C@H](NC(=O)C)[C@@H]1[C@H](O)[C@H](C[C@H]1NC(=N)N)C(=O)O

>  <Column 11>
CHEMBL139367

>  <Column 12>


>  <Column 13>
382.46

>  <Column 14>
C15 H28 N4 O4

>  <Tox-Glu>
ATCTOX

>  <Column 15>


>  <Column 16>
98 

>  <Column 17>
102 

>  <Column 18>
92 

>  <Column 19>


>  <Tox-Gal>
CTOXGAL

>  <Column 20>


>  <Column 21>
98 

>  <Column 22>
98 

>  <Column 23>
101 

>  <Column 24>


>  <Column 25>


>  <PAMPA>
PAMPA

>  <Column 26>
undetected

>  <Column 27>
low sensitivity

>  <Column 28>


>  <Mouse>
ATMETMOU

>  <Column 29>
-26

>  <Column 30>
Low sensitivity

$$$$
Compound 316
Actelion Java MolfileCreator 2.0

  0  0  0  0  0  0              0 V3000
M  V30 BEGIN CTAB
M  V30 COUNTS 17 19 0 0 0
M  V30 BEGIN ATOM
M  V30 1 O 2.7548 -2.2417 0.0 0
M  V30 2 C 4.222 -2.5536 0.0 0 CFG=1
M  V30 3 C 2.598 -0.75 0.0 0 CFG=1
M  V30 4 N 4.8321 -3.9239 0.0 0
M  V30 5 C 4.972 -1.2546 0.0 0
M  V30 6 C 3.9683 -0.1398 0.0 0
M  V30 7 C 1.299 0.0 0.0 0
M  V30 8 C 4.0821 -5.223 0.0 0
M  V30 9 C 6.2994 -4.2358 0.0 0
M  V30 10 O 0.0 -0.75 0.0 0
M  V30 11 N 2.6149 -5.5348 0.0 0
M  V30 12 C 5.0858 -6.3377 0.0 0
M  V30 13 N 6.4562 -5.7276 0.0 0
M  V30 14 C 2.1514 -6.9614 0.0 0
M  V30 15 C 4.6223 -7.7643 0.0 0
M  V30 16 N 3.1551 -8.0761 0.0 0
M  V30 17 O 5.626 -8.879 0.0 0
M  V30 END ATOM
M  V30 BEGIN BOND
M  V30 1 1 2 1
M  V30 2 1 3 1
M  V30 3 1 2 4 CFG=3
M  V30 4 1 2 5
M  V30 5 1 3 6
M  V30 6 1 3 7 CFG=3
M  V30 7 1 4 8
M  V30 8 1 4 9
M  V30 9 1 7 10
M  V30 10 2 8 11
M  V30 11 1 8 12
M  V30 12 2 9 13
M  V30 13 1 11 14
M  V30 14 2 12 15
M  V30 15 2 14 16
M  V30 16 1 15 17
M  V30 17 1 5 6
M  V30 18 1 12 13
M  V30 19 1 15 16
M  V30 END BOND
M  V30 BEGIN COLLECTION
M  V30 MDLV30/STEABS ATOMS=(2 2 3)
M  V30 END COLLECTION
M  V30 END CTAB
M  END
>  <Column 1>
315

>  <Column 2>
PandemicResponseBox - Plate D

>  <Column 3>
C11

>  <Column 4>
MMV637306

>  <Column 5>
10 mM

>  <Column 6>
ANTIVIRALS

>  <Column 7>


>  <Column 8>
None

>  <Column 9>
Didanosine

>  <Column 10>
O3[C@@H]([N]2C1=NC=NC(=C1N=C2)O)CC[C@H]3CO

>  <Column 11>
CHEMBL1460

>  <Column 12>


>  <Column 13>
236.2

>  <Column 14>
C10H12N4O3

>  <Tox-Glu>
ATCTOX

>  <Column 15>


>  <Column 16>
102 

>  <Column 17>
106 

>  <Column 18>
99 

>  <Column 19>


>  <Tox-Gal>
CTOXGAL

>  <Column 20>


>  <Column 21>
101 

>  <Column 22>
99 

>  <Column 23>
108 

>  <Column 24>


>  <Column 25>


>  <PAMPA>
PAMPA

>  <Column 26>
483

>  <Column 27>


>  <Column 28>


>  <Mouse>
ATMETMOU

>  <Column 29>


>  <Column 30>
Not determined; Low sensitivity

$$$$
Compound 317
Actelion Java MolfileCreator 2.0

  0  0  0  0  0  0              0 V3000
M  V30 BEGIN CTAB
M  V30 COUNTS 30 33 0 0 0
M  V30 BEGIN ATOM
M  V30 1 F 8.1529 -3.2071 0.0 0
M  V30 2 C 7.2869 -2.7071 0.0 0
M  V30 3 C 7.2869 -1.7071 0.0 0
M  V30 4 C 6.4208 -3.2071 0.0 0
M  V30 5 C 6.4208 -1.2071 0.0 0
M  V30 6 C 5.5548 -2.7071 0.0 0
M  V30 7 C 5.5548 -1.7071 0.0 0
M  V30 8 N 4.6888 -1.2071 0.0 0
M  V30 9 C 4.43 -0.2411 0.0 0
M  V30 10 C 3.7229 -1.4659 0.0 0 CFG=1
M  V30 11 O 4.93 0.6248 0.0 0
M  V30 12 C 3.4641 -0.5 0.0 0 CFG=1
M  V30 13 C 3.2229 -2.3319 0.0 0
M  V30 14 C 2.598 0.0 0.0 0
M  V30 15 C 2.2229 -2.3319 0.0 0
M  V30 16 C 3.7229 -3.1979 0.0 0
M  V30 17 C 1.732 -0.5 0.0 0
M  V30 18 C 1.7229 -3.1979 0.0 0
M  V30 19 C 3.2229 -4.064 0.0 0
M  V30 20 C 0.866 0.0 0.0 0 CFG=2
M  V30 21 C 2.2229 -4.064 0.0 0
M  V30 22 O 0.866 1.0 0.0 0
M  V30 23 C 0.0 -0.5 0.0 0
M  V30 24 O 1.7229 -4.93 0.0 0
M  V30 25 C -0.866 0.0 0.0 0
M  V30 26 C 0.0 -1.4999 0.0 0
M  V30 27 C -1.732 -0.4999 0.0 0
M  V30 28 C -0.866 -1.9999 0.0 0
M  V30 29 C -1.732 -1.4999 0.0 0
M  V30 30 F -2.598 -1.9999 0.0 0
M  V30 END ATOM
M  V30 BEGIN BOND
M  V30 1 1 1 2
M  V30 2 2 2 3
M  V30 3 1 2 4
M  V30 4 1 3 5
M  V30 5 2 4 6
M  V30 6 2 5 7
M  V30 7 1 7 8
M  V30 8 1 8 9
M  V30 9 1 10 8
M  V30 10 2 9 11
M  V30 11 1 12 9
M  V30 12 1 10 13 CFG=3
M  V30 13 1 12 14 CFG=1
M  V30 14 2 13 15
M  V30 15 1 13 16
M  V30 16 1 14 17
M  V30 17 1 15 18
M  V30 18 2 16 19
M  V30 19 1 20 17
M  V30 20 2 18 21
M  V30 21 1 20 22 CFG=1
M  V30 22 1 20 23
M  V30 23 1 21 24
M  V30 24 2 23 25
M  V30 25 1 23 26
M  V30 26 1 25 27
M  V30 27 2 26 28
M  V30 28 2 27 29
M  V30 29 1 29 30
M  V30 30 1 6 7
M  V30 31 1 10 12
M  V30 32 1 19 21
M  V30 33 1 28 29
M  V30 END BOND
M  V30 BEGIN COLLECTION
M  V30 MDLV30/STEABS ATOMS=(3 10 12 20)
M  V30 END COLLECTION
M  V30 END CTAB
M  END
>  <Column 1>
316

>  <Column 2>
PandemicResponseBox - Plate D

>  <Column 3>
D11

>  <Column 4>
MMV1581377

>  <Column 5>
10 mM

>  <Column 6>
ANTIVIRALS

>  <Column 7>


>  <Column 8>
None

>  <Column 9>
Ezetimibe

>  <Column 10>
FC4=CC=C(N2C(=O)[C@H](CC[C@H](O)C1=CC=C(F)C=C1)[C@H]2C3=CC=C(O)C=C3)C=C4

>  <Column 11>
CHEMBL1138

>  <Column 12>


>  <Column 13>
409.4

>  <Column 14>
C24 H21 F2 N O3

>  <Tox-Glu>
ATCTOX

>  <Column 15>


>  <Column 16>
94 

>  <Column 17>
40 

>  <Column 18>
1 

>  <Column 19>


>  <Tox-Gal>
CTOXGAL

>  <Column 20>


>  <Column 21>
97 

>  <Column 22>
12 

>  <Column 23>
1 

>  <Column 24>


>  <Column 25>


>  <PAMPA>
PAMPA

>  <Column 26>
155

>  <Column 27>


>  <Column 28>


>  <Mouse>
ATMETMOU

>  <Column 29>
313

>  <Column 30>
Low sensitivity

$$$$
Compound 318
Actelion Java MolfileCreator 2.0

  0  0  0  0  0  0              0 V3000
M  V30 BEGIN CTAB
M  V30 COUNTS 30 34 0 0 0
M  V30 BEGIN ATOM
M  V30 1 O 0.0107 -1.9612 0.0 0
M  V30 2 C 0.9889 -2.1691 0.0 0
M  V30 3 O 1.3956 -3.0826 0.0 0
M  V30 4 C 1.732 -1.4999 0.0 0
M  V30 5 C 2.3901 -2.9781 0.0 0
M  V30 6 C 1.732 -0.5 0.0 0
M  V30 7 C 2.598 -1.9999 0.0 0
M  V30 8 C 3.0592 -3.7212 0.0 0
M  V30 9 O 0.866 0.0 0.0 0
M  V30 10 C 2.598 0.0 0.0 0
M  V30 11 C 3.4641 -1.4999 0.0 0
M  V30 12 N 4.0374 -3.5133 0.0 0
M  V30 13 C 2.7502 -4.6723 0.0 0
M  V30 14 C 0.0 -0.5 0.0 0
M  V30 15 O 2.598 1.0 0.0 0
M  V30 16 C 3.4641 -0.5 0.0 0
M  V30 17 C 4.7065 -4.2565 0.0 0
M  V30 18 C 4.3464 -2.5623 0.0 0
M  V30 19 C 1.7721 -4.8802 0.0 0
M  V30 20 C 3.4194 -5.4154 0.0 0
M  V30 21 C 1.732 1.5 0.0 0
M  V30 22 C 4.3975 -5.2075 0.0 0
M  V30 23 O 1.1029 -4.1371 0.0 0
M  V30 24 C 1.4631 -5.8313 0.0 0
M  V30 25 C 3.1103 -6.3665 0.0 0
M  V30 26 C 0.1248 -4.345 0.0 0
M  V30 27 O 0.5495 -6.238 0.0 0
M  V30 28 C 2.1322 -6.5744 0.0 0
M  V30 29 C 0.654 -7.2325 0.0 0
M  V30 30 O 1.6322 -7.4404 0.0 0
M  V30 END ATOM
M  V30 BEGIN BOND
M  V30 1 2 1 2
M  V30 2 1 2 3
M  V30 3 1 2 4
M  V30 4 1 3 5
M  V30 5 2 4 6
M  V30 6 1 4 7
M  V30 7 1 5 8
M  V30 8 1 6 9
M  V30 9 1 6 10
M  V30 10 2 7 11
M  V30 11 1 8 12
M  V30 12 1 8 13
M  V30 13 1 9 14
M  V30 14 1 10 15
M  V30 15 2 10 16
M  V30 16 1 12 17
M  V30 17 1 12 18
M  V30 18 2 13 19
M  V30 19 1 13 20
M  V30 20 1 15 21
M  V30 21 1 17 22
M  V30 22 1 19 23
M  V30 23 1 19 24
M  V30 24 2 20 25
M  V30 25 1 23 26
M  V30 26 1 24 27
M  V30 27 2 24 28
M  V30 28 1 27 29
M  V30 29 1 28 30
M  V30 30 1 5 7
M  V30 31 1 11 16
M  V30 32 1 20 22
M  V30 33 1 25 28
M  V30 34 1 29 30
M  V30 END BOND
M  V30 END CTAB
M  END
>  <Column 1>
317

>  <Column 2>
PandemicResponseBox - Plate D

>  <Column 3>
E11

>  <Column 4>
MMV002780

>  <Column 5>
10 mM

>  <Column 6>
ANTIVIRALS

>  <Column 7>


>  <Column 8>
None

>  <Column 9>
Noscapine

>  <Column 10>
O=C4OC(C1N(CCC2=CC3=C(C(=C12)OC)OCO3)C)C5=CC=C(C(=C45)OC)OC

>  <Column 11>
CHEMBL402487

>  <Column 12>


>  <Column 13>
413.4

>  <Column 14>
C22H23NO7

>  <Tox-Glu>
ATCTOX

>  <Column 15>


>  <Column 16>
98 

>  <Column 17>
97 

>  <Column 18>
85 

>  <Column 19>


>  <Tox-Gal>
CTOXGAL

>  <Column 20>


>  <Column 21>
102 

>  <Column 22>
95 

>  <Column 23>
98 

>  <Column 24>


>  <Column 25>


>  <PAMPA>
PAMPA

>  <Column 26>
398

>  <Column 27>


>  <Column 28>


>  <Mouse>
ATMETMOU

>  <Column 29>
561

>  <Column 30>


$$$$
Compound 319
Actelion Java MolfileCreator 2.0

  0  0  0  0  0  0              0 V3000
M  V30 BEGIN CTAB
M  V30 COUNTS 22 24 0 0 0
M  V30 BEGIN ATOM
M  V30 1 Cl 4.3301 4.0 0.0 0
M  V30 2 C 4.3301 3.0 0.0 0
M  V30 3 C 3.4641 2.5 0.0 0
M  V30 4 C 5.1961 2.4999 0.0 0
M  V30 5 C 3.4641 1.5 0.0 0
M  V30 6 C 5.1961 1.4999 0.0 0
M  V30 7 C 2.598 1.0 0.0 0
M  V30 8 C 4.3301 0.9999 0.0 0
M  V30 9 C 1.732 1.5 0.0 0
M  V30 10 C 2.598 0.0 0.0 0
M  V30 11 N 4.3301 0.0 0.0 0
M  V30 12 C 1.732 2.5 0.0 0
M  V30 13 C 0.866 1.0 0.0 0
M  V30 14 C 3.4641 -0.4999 0.0 0
M  V30 15 C 1.732 -0.5 0.0 0
M  V30 16 C 0.866 3.0 0.0 0
M  V30 17 C 0.0 1.5 0.0 0
M  V30 18 C 3.4641 -1.4999 0.0 0
M  V30 19 C 1.732 -1.5 0.0 0
M  V30 20 C 0.0 2.5 0.0 0
M  V30 21 O 2.598 -2.0 0.0 0
M  V30 22 O 0.866 -2.0 0.0 0
M  V30 END ATOM
M  V30 BEGIN BOND
M  V30 1 1 1 2
M  V30 2 2 2 3
M  V30 3 1 2 4
M  V30 4 1 3 5
M  V30 5 2 4 6
M  V30 6 2 5 7
M  V30 7 1 5 8
M  V30 8 1 7 9
M  V30 9 1 7 10
M  V30 10 2 8 11
M  V30 11 2 9 12
M  V30 12 1 9 13
M  V30 13 2 10 14
M  V30 14 1 10 15
M  V30 15 1 12 16
M  V30 16 2 13 17
M  V30 17 1 14 18
M  V30 18 1 15 19
M  V30 19 2 16 20
M  V30 20 2 19 21
M  V30 21 1 19 22
M  V30 22 1 6 8
M  V30 23 1 11 14
M  V30 24 1 17 20
M  V30 END BOND
M  V30 END CTAB
M  END
>  <Column 1>
318

>  <Column 2>
PandemicResponseBox - Plate D

>  <Column 3>
F11

>  <Column 4>
MMV1580801

>  <Column 5>
10 mM

>  <Column 6>
ANTIVIRALS

>  <Column 7>


>  <Column 8>
None

>  <Column 9>


>  <Column 10>
ClC3=CC2=C(C1=CC=CC=C1)C(=C(C)N=C2C=C3)CC(=O)O

>  <Column 11>
CHEMBL1422607

>  <Column 12>
Nature Chemical Biology (2010), 6(6), 442-448,ACS Medicinal Chemistry Letters (2014), 5(4), 422-427.

>  <Column 13>
311.8

>  <Column 14>
C18 H14 Cl N O2

>  <Tox-Glu>
ATCTOX

>  <Column 15>


>  <Column 16>
102 

>  <Column 17>
108 

>  <Column 18>
95 

>  <Column 19>


>  <Tox-Gal>
CTOXGAL

>  <Column 20>


>  <Column 21>
101 

>  <Column 22>
98 

>  <Column 23>
106 

>  <Column 24>


>  <Column 25>


>  <PAMPA>
PAMPA

>  <Column 26>
39

>  <Column 27>


>  <Column 28>


>  <Mouse>
ATMETMOU

>  <Column 29>
-13

>  <Column 30>


$$$$
Compound 320
Actelion Java MolfileCreator 2.0

  0  0  0  0  0  0              0 V3000
M  V30 BEGIN CTAB
M  V30 COUNTS 26 28 0 0 0
M  V30 BEGIN ATOM
M  V30 1 O 8.6602 2.4999 0.0 0
M  V30 2 C 8.6602 1.4999 0.0 0
M  V30 3 N 9.5262 0.9999 0.0 0
M  V30 4 C 7.7942 0.9999 0.0 0
M  V30 5 O 10.3923 1.4999 0.0 0
M  V30 6 C 6.9282 1.4999 0.0 0
M  V30 7 C 6.0621 0.9999 0.0 0
M  V30 8 C 5.1961 1.4999 0.0 0
M  V30 9 C 6.0621 0.0 0.0 0
M  V30 10 C 4.3301 0.9999 0.0 0
M  V30 11 C 5.1961 -0.5 0.0 0
M  V30 12 C 4.3301 0.0 0.0 0
M  V30 13 C 3.4641 -0.5 0.0 0
M  V30 14 N 2.598 0.0 0.0 0
M  V30 15 C 1.732 -0.5 0.0 0
M  V30 16 C 0.866 0.0 0.0 0
M  V30 17 C 0.0 -0.5 0.0 0
M  V30 18 C -0.9135 -0.0932 0.0 0
M  V30 19 C -0.1045 -1.4945 0.0 0
M  V30 20 C -1.5826 -0.8364 0.0 0
M  V30 21 C -1.2225 0.8577 0.0 0
M  V30 22 N -1.0826 -1.7024 0.0 0
M  V30 23 C 0.6386 -2.1636 0.0 0
M  V30 24 C -2.5608 -0.6284 0.0 0
M  V30 25 C -2.2007 1.0657 0.0 0
M  V30 26 C -2.8698 0.3225 0.0 0
M  V30 END ATOM
M  V30 BEGIN BOND
M  V30 1 2 1 2
M  V30 2 1 2 3
M  V30 3 1 2 4
M  V30 4 1 3 5
M  V30 5 2 4 6
M  V30 6 1 6 7
M  V30 7 2 7 8
M  V30 8 1 7 9
M  V30 9 1 8 10
M  V30 10 2 9 11
M  V30 11 2 10 12
M  V30 12 1 12 13
M  V30 13 1 13 14
M  V30 14 1 14 15
M  V30 15 1 15 16
M  V30 16 1 16 17
M  V30 17 1 17 18
M  V30 18 2 17 19
M  V30 19 2 18 20
M  V30 20 1 18 21
M  V30 21 1 19 22
M  V30 22 1 19 23
M  V30 23 1 20 24
M  V30 24 2 21 25
M  V30 25 2 24 26
M  V30 26 1 11 12
M  V30 27 1 20 22
M  V30 28 1 25 26
M  V30 END BOND
M  V30 END CTAB
M  END
>  <Column 1>
319

>  <Column 2>
PandemicResponseBox - Plate D

>  <Column 3>
G11

>  <Column 4>
MMV010036

>  <Column 5>
10 mM

>  <Column 6>
ANTIVIRALS

>  <Column 7>


>  <Column 8>
None

>  <Column 9>
Panobinostat

>  <Column 10>
O=C(NO)\C=C\C3=CC=C(CNCCC1=C([NH]C2=C1C=CC=C2)C)C=C3

>  <Column 11>
CHEMBL483254

>  <Column 12>


>  <Column 13>
349.4

>  <Column 14>
C21H23N3O2

>  <Tox-Glu>
ATCTOX

>  <Column 15>


>  <Column 16>
31 

>  <Column 17>
8 

>  <Column 18>
2 

>  <Column 19>


>  <Tox-Gal>
CTOXGAL

>  <Column 20>


>  <Column 21>
53 

>  <Column 22>
17 

>  <Column 23>
7 

>  <Column 24>


>  <Column 25>


>  <PAMPA>
PAMPA

>  <Column 26>
0

>  <Column 27>


>  <Column 28>


>  <Mouse>
ATMETMOU

>  <Column 29>


>  <Column 30>
Not determined; Broad Peak

$$$$
Compound 321
Actelion Java MolfileCreator 2.0

  0  0  0  0  0  0              0 V3000
M  V30 BEGIN CTAB
M  V30 COUNTS 49 53 0 0 0
M  V30 BEGIN ATOM
M  V30 1 O 7.7942 -6.75 0.0 0
M  V30 2 C 7.7942 -5.25 0.0 0
M  V30 3 N 6.4951 -4.5 0.0 0
M  V30 4 C 9.0932 -4.5 0.0 0
M  V30 5 C 6.4951 -2.9999 0.0 0 CFG=2
M  V30 6 N 9.0932 -3.0 0.0 0
M  V30 7 C 10.3923 -5.2499 0.0 0
M  V30 8 C 5.1961 -2.25 0.0 0
M  V30 9 C 7.7942 -2.2499 0.0 0
M  V30 10 C 10.3923 -2.25 0.0 0
M  V30 11 C 11.6913 -4.4999 0.0 0
M  V30 12 O 3.8971 -3.0 0.0 0
M  V30 13 N 5.1961 -0.75 0.0 0
M  V30 14 C 7.7942 -0.7499 0.0 0
M  V30 15 C 11.6913 -2.9999 0.0 0
M  V30 16 C 10.3923 -0.75 0.0 0
M  V30 17 C 3.8971 0.0 0.0 0 CFG=2
M  V30 18 O 6.4951 0.0 0.0 0
M  V30 19 N 9.0932 0.0 0.0 0
M  V30 20 C 12.9903 -2.2499 0.0 0
M  V30 21 C 11.6913 0.0 0.0 0
M  V30 22 C 2.598 -0.75 0.0 0 CFG=2
M  V30 23 C 3.8971 1.5 0.0 0
M  V30 24 C 12.9903 -0.75 0.0 0
M  V30 25 O 2.598 -2.25 0.0 0
M  V30 26 C 1.299 0.0 0.0 0
M  V30 27 C 5.1961 2.25 0.0 0
M  V30 28 N 1.299 1.4999 0.0 0
M  V30 29 C 5.1961 3.75 0.0 0
M  V30 30 C 6.4951 1.5 0.0 0
M  V30 31 C 0.0 2.2499 0.0 0 CFG=2
M  V30 32 C 2.598 2.25 0.0 0
M  V30 33 C 6.4951 4.5 0.0 0
M  V30 34 C 7.7942 2.25 0.0 0
M  V30 35 C -1.299 1.4999 0.0 0
M  V30 36 C 0.0 3.7499 0.0 0
M  V30 37 C 2.598 3.75 0.0 0 CFG=2
M  V30 38 C 7.7942 3.75 0.0 0
M  V30 39 O -2.598 2.2499 0.0 0
M  V30 40 N -1.299 0.0 0.0 0
M  V30 41 C 1.299 4.5 0.0 0 CFG=1
M  V30 42 C 3.8971 4.5 0.0 0
M  V30 43 C -2.598 -0.75 0.0 0
M  V30 44 C 1.299 5.9999 0.0 0
M  V30 45 C 3.8971 6.0 0.0 0
M  V30 46 C -3.348 0.549 0.0 0
M  V30 47 C -3.8971 -1.5 0.0 0
M  V30 48 C -1.848 -2.049 0.0 0
M  V30 49 C 2.598 6.75 0.0 0
M  V30 END ATOM
M  V30 BEGIN BOND
M  V30 1 2 1 2
M  V30 2 1 2 3
M  V30 3 1 2 4
M  V30 4 1 5 3 CFG=3
M  V30 5 2 4 6
M  V30 6 1 4 7
M  V30 7 1 5 8
M  V30 8 1 5 9
M  V30 9 1 6 10
M  V30 10 2 7 11
M  V30 11 2 8 12
M  V30 12 1 8 13
M  V30 13 1 9 14
M  V30 14 1 10 15
M  V30 15 2 10 16
M  V30 16 1 17 13 CFG=3
M  V30 17 2 14 18
M  V30 18 1 14 19
M  V30 19 2 15 20
M  V30 20 1 16 21
M  V30 21 1 22 17
M  V30 22 1 17 23
M  V30 23 1 20 24
M  V30 24 1 22 25 CFG=3
M  V30 25 1 22 26
M  V30 26 1 23 27
M  V30 27 1 26 28
M  V30 28 2 27 29
M  V30 29 1 27 30
M  V30 30 1 31 28
M  V30 31 1 28 32
M  V30 32 1 29 33
M  V30 33 2 30 34
M  V30 34 1 31 35 CFG=3
M  V30 35 1 31 36
M  V30 36 1 37 32 CFG=3
M  V30 37 2 33 38
M  V30 38 2 35 39
M  V30 39 1 35 40
M  V30 40 1 41 36 CFG=3
M  V30 41 1 37 42
M  V30 42 1 40 43
M  V30 43 1 41 44
M  V30 44 1 42 45
M  V30 45 1 43 46
M  V30 46 1 43 47
M  V30 47 1 43 48
M  V30 48 1 44 49
M  V30 49 1 11 15
M  V30 50 2 21 24
M  V30 51 1 34 38
M  V30 52 1 37 41
M  V30 53 1 45 49
M  V30 END BOND
M  V30 BEGIN COLLECTION
M  V30 MDLV30/STEABS ATOMS=(6 5 17 22 31 37 41)
M  V30 END COLLECTION
M  V30 END CTAB
M  END
>  <Column 1>
320

>  <Column 2>
PandemicResponseBox - Plate D

>  <Column 3>
H11

>  <Column 4>
MMV637879

>  <Column 5>
10 mM

>  <Column 6>
ANTIVIRALS

>  <Column 7>


>  <Column 8>
None

>  <Column 9>
Saquinavir

>  <Column 10>
O=C(N[C@H](C(=O)N[C@H]([C@H](O)CN2[C@H](C(=O)NC(C)(C)C)C[C@@H]1CCCC[C@@H]1C2)CC3=CC=CC=C3)CC(=O)N)C5=NC4=CC=CC=C4C=C5

>  <Column 11>
CHEMBL114

>  <Column 12>


>  <Column 13>
670.8

>  <Column 14>
C38 H50 N6 O5

>  <Tox-Glu>
ATCTOX

>  <Column 15>


>  <Column 16>
87 

>  <Column 17>
1 

>  <Column 18>
1 

>  <Column 19>


>  <Tox-Gal>
CTOXGAL

>  <Column 20>


>  <Column 21>
98 

>  <Column 22>
1 

>  <Column 23>
1 

>  <Column 24>


>  <Column 25>


>  <PAMPA>
PAMPA

>  <Column 26>
undetected

>  <Column 27>
low sensitivity

>  <Column 28>


>  <Mouse>
ATMETMOU

>  <Column 29>
676

>  <Column 30>


$$$$
Compound 322
Actelion Java MolfileCreator 2.0

  0  0  0  0  0  0              0 V3000
M  V30 BEGIN CTAB
M  V30 COUNTS 24 27 0 0 0
M  V30 BEGIN ATOM
M  V30 1 O 4.0539 1.4917 0.0 0
M  V30 2 C 3.8971 0.0 0.0 0
M  V30 3 C 5.5211 1.8036 0.0 0
M  V30 4 C 5.2674 -0.6101 0.0 0
M  V30 5 C 2.598 -0.75 0.0 0
M  V30 6 C 6.2711 0.5046 0.0 0
M  V30 7 N 1.299 0.0 0.0 0
M  V30 8 C 0.0 -0.75 0.0 0
M  V30 9 C -1.299 0.0 0.0 0
M  V30 10 C 0.0 -2.2499 0.0 0
M  V30 11 C -2.598 -0.7499 0.0 0
M  V30 12 C -1.299 -3.0 0.0 0
M  V30 13 N -4.0246 -0.2864 0.0 0
M  V30 14 C -2.598 -2.2499 0.0 0
M  V30 15 C -4.9063 -1.5 0.0 0
M  V30 16 N -4.0246 -2.7135 0.0 0
M  V30 17 C -4.4881 -4.1401 0.0 0
M  V30 18 C -5.9554 -4.4519 0.0 0
M  V30 19 C -3.4844 -5.2548 0.0 0
M  V30 20 C -6.4189 -5.8785 0.0 0
M  V30 21 C -3.948 -6.6814 0.0 0
M  V30 22 C -5.4152 -6.9932 0.0 0
M  V30 23 O -5.8787 -8.4198 0.0 0
M  V30 24 C -4.875 -9.5345 0.0 0
M  V30 END ATOM
M  V30 BEGIN BOND
M  V30 1 1 1 2
M  V30 2 1 1 3
M  V30 3 2 2 4
M  V30 4 1 2 5
M  V30 5 2 3 6
M  V30 6 1 5 7
M  V30 7 1 7 8
M  V30 8 2 8 9
M  V30 9 1 8 10
M  V30 10 1 9 11
M  V30 11 2 10 12
M  V30 12 1 11 13
M  V30 13 2 11 14
M  V30 14 2 13 15
M  V30 15 1 14 16
M  V30 16 1 16 17
M  V30 17 2 17 18
M  V30 18 1 17 19
M  V30 19 1 18 20
M  V30 20 2 19 21
M  V30 21 2 20 22
M  V30 22 1 22 23
M  V30 23 1 23 24
M  V30 24 1 4 6
M  V30 25 1 12 14
M  V30 26 1 15 16
M  V30 27 1 21 22
M  V30 END BOND
M  V30 END CTAB
M  END
>  <Column 1>
321

>  <Column 2>
PandemicResponseBox - Plate E

>  <Column 3>
A02

>  <Column 4>
MMV617332

>  <Column 5>
10 mM

>  <Column 6>
ANTIVIRALS

>  <Column 7>


>  <Column 8>
None

>  <Column 9>


>  <Column 10>
O1C(=CC=C1)CNC4=CC3=C([N](C2=CC=C(OC)C=C2)C=N3)C=C4

>  <Column 11>
CHEMBL1444012

>  <Column 12>


>  <Column 13>
319.4

>  <Column 14>
C19H17N3O2

>  <Tox-Glu>
ATCTOX

>  <Column 15>


>  <Column 16>
103 

>  <Column 17>
103 

>  <Column 18>
20 

>  <Column 19>


>  <Tox-Gal>
CTOXGAL

>  <Column 20>


>  <Column 21>
99 

>  <Column 22>
95 

>  <Column 23>
1 

>  <Column 24>


>  <Column 25>


>  <PAMPA>
PAMPA

>  <Column 26>
364

>  <Column 27>


>  <Column 28>


>  <Mouse>
ATMETMOU

>  <Column 29>
98

>  <Column 30>


$$$$
Compound 323
Actelion Java MolfileCreator 2.0

  0  0  0  0  0  0              0 V3000
M  V30 BEGIN CTAB
M  V30 COUNTS 22 24 0 0 0
M  V30 BEGIN ATOM
M  V30 1 O 12.9903 2.25 0.0 0
M  V30 2 C 11.6913 1.5 0.0 0
M  V30 3 N 10.3923 2.25 0.0 0
M  V30 4 C 11.6913 0.0 0.0 0
M  V30 5 C 9.0932 1.5 0.0 0
M  V30 6 C 10.3923 -0.7499 0.0 0
M  V30 7 C 12.9903 -0.7499 0.0 0
M  V30 8 C 9.0932 0.0 0.0 0
M  V30 9 C 7.7942 2.2499 0.0 0
M  V30 10 C 10.3923 -2.2499 0.0 0
M  V30 11 C 12.9903 -2.25 0.0 0
M  V30 12 C 7.7942 -0.75 0.0 0
M  V30 13 C 6.4951 1.5 0.0 0
M  V30 14 C 11.6913 -2.9999 0.0 0
M  V30 15 C 6.4951 0.0 0.0 0
M  V30 16 N 5.1961 -0.75 0.0 0
M  V30 17 C 3.8971 0.0 0.0 0
M  V30 18 O 3.8971 1.5 0.0 0
M  V30 19 C 2.598 -0.75 0.0 0
M  V30 20 N 1.299 0.0 0.0 0
M  V30 21 C 1.299 1.5 0.0 0
M  V30 22 C 0.0 -0.75 0.0 0
M  V30 END ATOM
M  V30 BEGIN BOND
M  V30 1 2 1 2
M  V30 2 1 2 3
M  V30 3 1 2 4
M  V30 4 1 3 5
M  V30 5 2 4 6
M  V30 6 1 4 7
M  V30 7 2 5 8
M  V30 8 1 5 9
M  V30 9 1 6 10
M  V30 10 2 7 11
M  V30 11 1 8 12
M  V30 12 2 9 13
M  V30 13 2 10 14
M  V30 14 2 12 15
M  V30 15 1 15 16
M  V30 16 1 16 17
M  V30 17 2 17 18
M  V30 18 1 17 19
M  V30 19 1 19 20
M  V30 20 1 20 21
M  V30 21 1 20 22
M  V30 22 1 6 8
M  V30 23 1 11 14
M  V30 24 1 13 15
M  V30 END BOND
M  V30 END CTAB
M  END
>  <Column 1>
322

>  <Column 2>
PandemicResponseBox - Plate E

>  <Column 3>
B02

>  <Column 4>
MMV1580480

>  <Column 5>
10 mM

>  <Column 6>
ANTIVIRALS

>  <Column 7>
1

>  <Column 8>
Hydrochloric acid

>  <Column 9>
PJ 34

>  <Column 10>
O=[C]2[NH]C1=C(C=C(NC(=O)CN(C)C)C=C1)C3=C2C=CC=C3

>  <Column 11>
CHEMBL372303

>  <Column 12>
�Journal of Medicinal Chemistry (2014), 57(6), 2247-2257.

>  <Column 13>
331.8

>  <Column 14>
C17 H17 N3 O2

>  <Tox-Glu>
ATCTOX

>  <Column 15>


>  <Column 16>
100 

>  <Column 17>
99 

>  <Column 18>
80 

>  <Column 19>


>  <Tox-Gal>
CTOXGAL

>  <Column 20>


>  <Column 21>
102 

>  <Column 22>
96 

>  <Column 23>
100 

>  <Column 24>


>  <Column 25>


>  <PAMPA>
PAMPA

>  <Column 26>
289

>  <Column 27>


>  <Column 28>


>  <Mouse>
ATMETMOU

>  <Column 29>
574

>  <Column 30>


$$$$
Compound 324
Actelion Java MolfileCreator 2.0

  0  0  0  0  0  0              0 V3000
M  V30 BEGIN CTAB
M  V30 COUNTS 49 53 0 0 0
M  V30 BEGIN ATOM
M  V30 1 O 5.1961 2.5 0.0 0
M  V30 2 C 4.3301 3.0 0.0 0
M  V30 3 N 3.4641 2.5 0.0 0
M  V30 4 C 4.3301 4.0 0.0 0
M  V30 5 C 3.4641 1.5 0.0 0 CFG=2
M  V30 6 N 5.1961 4.5 0.0 0
M  V30 7 C 3.4641 4.5 0.0 0
M  V30 8 C 2.598 1.0 0.0 0
M  V30 9 C 4.3301 1.0 0.0 0
M  V30 10 C 5.1961 5.5 0.0 0
M  V30 11 N 3.4641 5.5 0.0 0
M  V30 12 O 1.732 1.5 0.0 0
M  V30 13 N 2.598 0.0 0.0 0
M  V30 14 C 5.1961 1.5 0.0 0
M  V30 15 C 4.3301 0.0 0.0 0
M  V30 16 C 4.3301 6.0 0.0 0
M  V30 17 C 1.732 -0.5 0.0 0 CFG=2
M  V30 18 C 6.0621 1.0 0.0 0
M  V30 19 C 5.1961 -0.4999 0.0 0
M  V30 20 C 0.866 0.0 0.0 0
M  V30 21 C 1.732 -1.5 0.0 0
M  V30 22 C 6.0621 0.0 0.0 0
M  V30 23 O 0.866 1.0 0.0 0
M  V30 24 N 0.0 -0.5 0.0 0
M  V30 25 C 2.732 -1.4999 0.0 0
M  V30 26 C 1.732 -2.5 0.0 0
M  V30 27 C 0.732 -1.5 0.0 0
M  V30 28 C -0.9135 -0.0932 0.0 0 CFG=2
M  V30 29 C -0.1045 -1.4945 0.0 0
M  V30 30 C -1.1214 0.8848 0.0 0
M  V30 31 C -1.5826 -0.8364 0.0 0 CFG=2
M  V30 32 C -1.0826 -1.7024 0.0 0 CFG=1
M  V30 33 O -2.0725 1.1939 0.0 0
M  V30 34 N -0.3783 1.554 0.0 0
M  V30 35 C -2.5608 -1.0443 0.0 0
M  V30 36 C -1.7518 -2.4455 0.0 0
M  V30 37 C -0.5862 2.5321 0.0 0 CFG=2
M  V30 38 C -2.6653 -2.0388 0.0 0
M  V30 39 C 0.1569 3.2012 0.0 0
M  V30 40 C -1.5372 2.8411 0.0 0
M  V30 41 O 1.1079 2.8922 0.0 0
M  V30 42 C -0.0509 4.1794 0.0 0
M  V30 43 C -1.7451 3.8193 0.0 0
M  V30 44 O -1.002 4.4884 0.0 0
M  V30 45 N 0.6921 4.8485 0.0 0
M  V30 46 C -2.6962 4.1283 0.0 0
M  V30 47 C 0.4842 5.8267 0.0 0
M  V30 48 C 0.7932 6.7777 0.0 0
M  V30 49 C -0.1848 6.5698 0.0 0
M  V30 END ATOM
M  V30 BEGIN BOND
M  V30 1 2 1 2
M  V30 2 1 2 3
M  V30 3 1 2 4
M  V30 4 1 5 3 CFG=1
M  V30 5 2 4 6
M  V30 6 1 4 7
M  V30 7 1 5 8
M  V30 8 1 5 9
M  V30 9 1 6 10
M  V30 10 2 7 11
M  V30 11 2 8 12
M  V30 12 1 8 13
M  V30 13 1 9 14
M  V30 14 1 9 15
M  V30 15 2 10 16
M  V30 16 1 17 13 CFG=1
M  V30 17 1 14 18
M  V30 18 1 15 19
M  V30 19 1 17 20
M  V30 20 1 17 21
M  V30 21 1 18 22
M  V30 22 2 20 23
M  V30 23 1 20 24
M  V30 24 1 21 25
M  V30 25 1 21 26
M  V30 26 1 21 27
M  V30 27 1 28 24
M  V30 28 1 24 29
M  V30 29 1 28 30 CFG=1
M  V30 30 1 31 28
M  V30 31 1 32 29 CFG=3
M  V30 32 2 30 33
M  V30 33 1 30 34
M  V30 34 1 31 35 CFG=3
M  V30 35 1 32 36
M  V30 36 1 37 34 CFG=1
M  V30 37 1 35 38
M  V30 38 1 37 39
M  V30 39 1 37 40
M  V30 40 2 39 41
M  V30 41 1 39 42
M  V30 42 1 40 43
M  V30 43 2 42 44
M  V30 44 1 42 45
M  V30 45 1 43 46
M  V30 46 1 45 47
M  V30 47 1 47 48
M  V30 48 1 47 49
M  V30 49 1 11 16
M  V30 50 1 19 22
M  V30 51 1 31 32
M  V30 52 1 36 38
M  V30 53 1 48 49
M  V30 END BOND
M  V30 BEGIN COLLECTION
M  V30 MDLV30/STEABS ATOMS=(6 5 17 28 31 32 37)
M  V30 END COLLECTION
M  V30 END CTAB
M  END
>  <Column 1>
323

>  <Column 2>
PandemicResponseBox - Plate E

>  <Column 3>
C02

>  <Column 4>
MMV1580494

>  <Column 5>
10 mM

>  <Column 6>
ANTIVIRALS

>  <Column 7>


>  <Column 8>
None

>  <Column 9>
Telaprevir

>  <Column 10>
O=C(N[C@H](C(=O)N[C@H](C(=O)N3[C@H](C(=O)N[C@H](C(=O)C(=O)NC1CC1)CCC)[C@H]2CCC[C@H]2C3)C(C)(C)C)C4CCCCC4)C5=NC=CN=C5

>  <Column 11>
CHEMBL231813

>  <Column 12>


>  <Column 13>
679.8

>  <Column 14>
C36 H53 N7 O6

>  <Tox-Glu>
ATCTOX

>  <Column 15>


>  <Column 16>
104 

>  <Column 17>
102 

>  <Column 18>
77 

>  <Column 19>


>  <Tox-Gal>
CTOXGAL

>  <Column 20>


>  <Column 21>
106 

>  <Column 22>
96 

>  <Column 23>
8 

>  <Column 24>


>  <Column 25>


>  <PAMPA>
PAMPA

>  <Column 26>
177

>  <Column 27>


>  <Column 28>


>  <Mouse>
ATMETMOU

>  <Column 29>
65

>  <Column 30>
Two Peaks

$$$$
Compound 325
Actelion Java MolfileCreator 2.0

  0  0  0  0  0  0              0 V3000
M  V30 BEGIN CTAB
M  V30 COUNTS 30 33 0 0 0
M  V30 BEGIN ATOM
M  V30 1 F 2.598 -5.2499 0.0 0
M  V30 2 C 1.299 -4.5 0.0 0
M  V30 3 C 1.299 -2.9999 0.0 0
M  V30 4 C 0.0 -5.25 0.0 0
M  V30 5 N 2.598 -2.25 0.0 0
M  V30 6 C 0.0 -2.2499 0.0 0
M  V30 7 C -1.299 -4.4999 0.0 0
M  V30 8 C 3.8971 -3.0 0.0 0
M  V30 9 C 2.598 -0.75 0.0 0
M  V30 10 C -1.299 -3.0 0.0 0
M  V30 11 O 3.8971 -4.5 0.0 0
M  V30 12 C 5.1961 -2.25 0.0 0
M  V30 13 N 3.8971 0.0 0.0 0
M  V30 14 C 1.299 0.0 0.0 0
M  V30 15 C 5.1961 -0.75 0.0 0
M  V30 16 C 6.4951 -3.0 0.0 0
M  V30 17 N 1.299 1.5 0.0 0
M  V30 18 C 6.4951 0.0 0.0 0
M  V30 19 C 7.7942 -2.25 0.0 0
M  V30 20 C 0.0 2.2499 0.0 0
M  V30 21 C 2.598 2.25 0.0 0
M  V30 22 C 7.7942 -0.75 0.0 0
M  V30 23 N 9.0932 -3.0 0.0 0 CHG=1 VAL=5
M  V30 24 C 0.0 3.7499 0.0 0
M  V30 25 C 2.598 3.75 0.0 0
M  V30 26 O 9.0932 -4.5 0.0 0
M  V30 27 O 10.3923 -2.25 0.0 0 CHG=-1
M  V30 28 N 1.299 4.5 0.0 0
M  V30 29 C 1.299 6.0 0.0 0
M  V30 30 C 2.598 6.75 0.0 0
M  V30 END ATOM
M  V30 BEGIN BOND
M  V30 1 1 1 2
M  V30 2 2 2 3
M  V30 3 1 2 4
M  V30 4 1 3 5
M  V30 5 1 3 6
M  V30 6 2 4 7
M  V30 7 1 5 8
M  V30 8 1 5 9
M  V30 9 2 6 10
M  V30 10 2 8 11
M  V30 11 1 8 12
M  V30 12 2 9 13
M  V30 13 1 9 14
M  V30 14 2 12 15
M  V30 15 1 12 16
M  V30 16 1 14 17
M  V30 17 1 15 18
M  V30 18 2 16 19
M  V30 19 1 17 20
M  V30 20 1 17 21
M  V30 21 2 18 22
M  V30 22 1 19 23
M  V30 23 1 20 24
M  V30 24 1 21 25
M  V30 25 2 23 26
M  V30 26 1 23 27
M  V30 27 1 24 28
M  V30 28 1 28 29
M  V30 29 1 29 30
M  V30 30 1 7 10
M  V30 31 1 13 15
M  V30 32 1 19 22
M  V30 33 1 25 28
M  V30 END BOND
M  V30 END CTAB
M  END
>  <Column 1>
324

>  <Column 2>
PandemicResponseBox - Plate E

>  <Column 3>
D02

>  <Column 4>
MMV275100

>  <Column 5>
10 mM

>  <Column 6>
ANTIVIRALS

>  <Column 7>


>  <Column 8>
None

>  <Column 9>


>  <Column 10>
FC4=C([N]2[C](=O)C1=C(C=CC(=C1)[N](=O)=O)N=C2CN3CCN(CC)CC3)C=CC=C4

>  <Column 11>
CHEMBL1399083

>  <Column 12>


>  <Column 13>
411.4

>  <Column 14>
C21H22FN5O3

>  <Tox-Glu>
ATCTOX

>  <Column 15>


>  <Column 16>
99 

>  <Column 17>
89 

>  <Column 18>
56 

>  <Column 19>


>  <Tox-Gal>
CTOXGAL

>  <Column 20>


>  <Column 21>
97 

>  <Column 22>
92 

>  <Column 23>
85 

>  <Column 24>


>  <Column 25>


>  <PAMPA>
PAMPA

>  <Column 26>
323

>  <Column 27>


>  <Column 28>


>  <Mouse>
ATMETMOU

>  <Column 29>
-16

>  <Column 30>


$$$$
Compound 326
Actelion Java MolfileCreator 2.0

  0  0  0  0  0  0              0 V3000
M  V30 BEGIN CTAB
M  V30 COUNTS 21 23 0 0 0
M  V30 BEGIN ATOM
M  V30 1 O 5.8339 -2.8614 0.0 0
M  V30 2 C 4.8557 -2.6534 0.0 0
M  V30 3 N 4.1866 -3.3966 0.0 0
M  V30 4 C 4.5467 -1.7024 0.0 0
M  V30 5 C 3.2085 -3.1887 0.0 0
M  V30 6 N 5.0467 -0.8364 0.0 0
M  V30 7 C 3.5686 -1.4945 0.0 0
M  V30 8 N 2.8994 -2.2376 0.0 0
M  V30 9 N 2.5393 -3.9318 0.0 0
M  V30 10 C 4.3776 -0.0932 0.0 0
M  V30 11 N 3.4641 -0.5 0.0 0
M  V30 12 C 2.8484 -4.8829 0.0 0
M  V30 13 C 2.598 0.0 0.0 0
M  V30 14 C 2.1792 -5.626 0.0 0
M  V30 15 C 3.8265 -5.0908 0.0 0
M  V30 16 C 1.732 -0.5 0.0 0
M  V30 17 C 2.4882 -6.5771 0.0 0
M  V30 18 C 4.1355 -6.0418 0.0 0
M  V30 19 O 0.866 0.0 0.0 0
M  V30 20 C 3.4664 -6.785 0.0 0
M  V30 21 C 0.0 -0.5 0.0 0
M  V30 END ATOM
M  V30 BEGIN BOND
M  V30 1 2 1 2
M  V30 2 1 2 3
M  V30 3 1 2 4
M  V30 4 1 3 5
M  V30 5 1 4 6
M  V30 6 2 4 7
M  V30 7 2 5 8
M  V30 8 1 5 9
M  V30 9 2 6 10
M  V30 10 1 7 11
M  V30 11 1 9 12
M  V30 12 1 11 13
M  V30 13 2 12 14
M  V30 14 1 12 15
M  V30 15 1 13 16
M  V30 16 1 14 17
M  V30 17 2 15 18
M  V30 18 1 16 19
M  V30 19 2 17 20
M  V30 20 1 19 21
M  V30 21 1 7 8
M  V30 22 1 10 11
M  V30 23 1 18 20
M  V30 END BOND
M  V30 END CTAB
M  END
>  <Column 1>
325

>  <Column 2>
PandemicResponseBox - Plate E

>  <Column 3>
E02

>  <Column 4>
MMV1782103

>  <Column 5>
10 mM

>  <Column 6>
ANTIVIRALS

>  <Column 7>


>  <Column 8>
None

>  <Column 9>


>  <Column 10>
O=[C]1[NH]C(=NC2=C1N=C[N]2CCOC)NC3=CC=CC=C3

>  <Column 11>
CHEMBL154209

>  <Column 12>


>  <Column 13>
285.3

>  <Column 14>
C14 H15 N5 O2

>  <Tox-Glu>
ATCTOX

>  <Column 15>


>  <Column 16>
111 

>  <Column 17>
114 

>  <Column 18>
103 

>  <Column 19>


>  <Tox-Gal>
CTOXGAL

>  <Column 20>


>  <Column 21>
109 

>  <Column 22>
103 

>  <Column 23>
109 

>  <Column 24>


>  <Column 25>


>  <PAMPA>
PAMPA

>  <Column 26>
8

>  <Column 27>


>  <Column 28>


>  <Mouse>
ATMETMOU

>  <Column 29>
81

>  <Column 30>


$$$$
Compound 327
Actelion Java MolfileCreator 2.0

  0  0  0  0  0  0              0 V3000
M  V30 BEGIN CTAB
M  V30 COUNTS 15 15 0 0 0
M  V30 BEGIN ATOM
M  V30 1 O 9.0932 -3.0 0.0 0
M  V30 2 C 7.7942 -2.2499 0.0 0 CFG=1
M  V30 3 C 7.7942 -0.75 0.0 0 CFG=2
M  V30 4 C 6.4951 -2.9999 0.0 0 CFG=1
M  V30 5 O 9.0932 0.0 0.0 0
M  V30 6 C 6.4951 0.0 0.0 0 CFG=2
M  V30 7 O 6.4951 -4.4999 0.0 0
M  V30 8 C 5.1961 -2.25 0.0 0
M  V30 9 N 5.1961 -0.75 0.0 0
M  V30 10 C 6.4951 1.5 0.0 0
M  V30 11 C 3.8971 0.0 0.0 0
M  V30 12 O 5.1961 2.25 0.0 0
M  V30 13 C 2.598 -0.75 0.0 0
M  V30 14 C 1.299 0.0 0.0 0
M  V30 15 C 0.0 -0.75 0.0 0
M  V30 END ATOM
M  V30 BEGIN BOND
M  V30 1 1 2 1 CFG=3
M  V30 2 1 3 2
M  V30 3 1 4 2
M  V30 4 1 3 5 CFG=1
M  V30 5 1 6 3
M  V30 6 1 4 7 CFG=1
M  V30 7 1 4 8
M  V30 8 1 6 9
M  V30 9 1 6 10 CFG=3
M  V30 10 1 9 11
M  V30 11 1 10 12
M  V30 12 1 11 13
M  V30 13 1 13 14
M  V30 14 1 14 15
M  V30 15 1 8 9
M  V30 END BOND
M  V30 BEGIN COLLECTION
M  V30 MDLV30/STEABS ATOMS=(4 2 3 4 6)
M  V30 END COLLECTION
M  V30 END CTAB
M  END
>  <Column 1>
326

>  <Column 2>
PandemicResponseBox - Plate E

>  <Column 3>
F02

>  <Column 4>
MMV1782098

>  <Column 5>
10 mM

>  <Column 6>
ANTIVIRALS

>  <Column 7>


>  <Column 8>
None

>  <Column 9>


>  <Column 10>
O[C@H]1[C@H](O)[C@H](N(CCCC)C[C@@H]1O)CO

>  <Column 11>
CHEMBL1029

>  <Column 12>


>  <Column 13>
219.3

>  <Column 14>
C10 H21 N O4

>  <Tox-Glu>
ATCTOX

>  <Column 15>


>  <Column 16>
103 

>  <Column 17>
103 

>  <Column 18>
95 

>  <Column 19>


>  <Tox-Gal>
CTOXGAL

>  <Column 20>


>  <Column 21>
101 

>  <Column 22>
102 

>  <Column 23>
107 

>  <Column 24>


>  <Column 25>


>  <PAMPA>
PAMPA

>  <Column 26>
undetected

>  <Column 27>
low sensitivity

>  <Column 28>


>  <Mouse>
ATMETMOU

>  <Column 29>


>  <Column 30>
Not determined; Low sensitivity

$$$$
Compound 328
Actelion Java MolfileCreator 2.0

  0  0  0  0  0  0              0 V3000
M  V30 BEGIN CTAB
M  V30 COUNTS 30 33 0 0 0
M  V30 BEGIN ATOM
M  V30 1 O 3.4641 -0.5 0.0 0
M  V30 2 C 2.598 0.0 0.0 0
M  V30 3 N 1.732 -0.5 0.0 0
M  V30 4 C 2.598 1.0 0.0 0
M  V30 5 C 0.866 0.0 0.0 0
M  V30 6 C 3.4641 1.5 0.0 0
M  V30 7 C 1.732 1.5 0.0 0
M  V30 8 C 0.0 -0.5 0.0 0
M  V30 9 C 3.4641 2.5 0.0 0
M  V30 10 C 1.732 2.5 0.0 0
M  V30 11 C -0.866 0.0 0.0 0
M  V30 12 C 0.0 -1.4999 0.0 0
M  V30 13 N 2.598 3.0 0.0 0
M  V30 14 C -1.732 -0.4999 0.0 0
M  V30 15 C -0.866 -1.9999 0.0 0
M  V30 16 C 2.598 4.0 0.0 0 CFG=1
M  V30 17 C -1.732 -1.4999 0.0 0
M  V30 18 C 3.4641 4.5 0.0 0
M  V30 19 C 1.732 4.5 0.0 0
M  V30 20 O -2.598 -1.9999 0.0 0
M  V30 21 C 4.3301 3.9999 0.0 0
M  V30 22 C 3.4641 5.5 0.0 0
M  V30 23 C -2.598 -2.9999 0.0 0
M  V30 24 C 5.1961 4.4999 0.0 0
M  V30 25 C 4.3301 3.0 0.0 0
M  V30 26 C 4.3301 5.9999 0.0 0
M  V30 27 C 5.1961 5.4999 0.0 0
M  V30 28 C 6.0621 3.9999 0.0 0
M  V30 29 C 5.1961 2.4999 0.0 0
M  V30 30 C 6.0621 2.9999 0.0 0
M  V30 END ATOM
M  V30 BEGIN BOND
M  V30 1 2 1 2
M  V30 2 1 2 3
M  V30 3 1 2 4
M  V30 4 1 3 5
M  V30 5 1 4 6
M  V30 6 1 4 7
M  V30 7 1 5 8
M  V30 8 1 6 9
M  V30 9 1 7 10
M  V30 10 2 8 11
M  V30 11 1 8 12
M  V30 12 1 9 13
M  V30 13 1 11 14
M  V30 14 2 12 15
M  V30 15 1 16 13 CFG=3
M  V30 16 2 14 17
M  V30 17 1 16 18
M  V30 18 1 16 19
M  V30 19 1 17 20
M  V30 20 1 18 21
M  V30 21 2 18 22
M  V30 22 1 20 23
M  V30 23 1 21 24
M  V30 24 2 21 25
M  V30 25 1 22 26
M  V30 26 1 24 27
M  V30 27 2 24 28
M  V30 28 1 25 29
M  V30 29 1 28 30
M  V30 30 1 10 13
M  V30 31 1 15 17
M  V30 32 2 26 27
M  V30 33 2 29 30
M  V30 END BOND
M  V30 BEGIN COLLECTION
M  V30 MDLV30/STEABS ATOMS=(1 16)
M  V30 END COLLECTION
M  V30 END CTAB
M  END
>  <Column 1>
327

>  <Column 2>
PandemicResponseBox - Plate E

>  <Column 3>
G02

>  <Column 4>
MMV1634397

>  <Column 5>
10 mM

>  <Column 6>
ANTIVIRALS

>  <Column 7>


>  <Column 8>
None

>  <Column 9>


>  <Column 10>
O=C(NCC1=CC=C(OC)C=C1)C4CCN([C@@H](C2=CC=CC3=CC=CC=C23)C)CC4

>  <Column 11>
CHEMBL1172891

>  <Column 12>


>  <Column 13>
402.5

>  <Column 14>
C26 H30 N2 O2

>  <Tox-Glu>
ATCTOX

>  <Column 15>


>  <Column 16>
94 

>  <Column 17>
53 

>  <Column 18>
3 

>  <Column 19>


>  <Tox-Gal>
CTOXGAL

>  <Column 20>


>  <Column 21>
99 

>  <Column 22>
79 

>  <Column 23>
1 

>  <Column 24>


>  <Column 25>


>  <PAMPA>
PAMPA

>  <Column 26>
395

>  <Column 27>


>  <Column 28>


>  <Mouse>
ATMETMOU

>  <Column 29>
248

>  <Column 30>


$$$$
Compound 329
Actelion Java MolfileCreator 2.0

  0  0  0  0  0  0              0 V3000
M  V30 BEGIN CTAB
M  V30 COUNTS 22 23 0 0 0
M  V30 BEGIN ATOM
M  V30 1 Cl 9.5262 -3.0 0.0 0
M  V30 2 C 9.5262 -2.0 0.0 0
M  V30 3 C 10.3923 -1.5 0.0 0
M  V30 4 C 8.6602 -1.5 0.0 0
M  V30 5 C 10.3923 -0.5 0.0 0
M  V30 6 C 8.6602 -0.5 0.0 0
M  V30 7 Cl 11.2583 0.0 0.0 0
M  V30 8 C 9.5262 0.0 0.0 0
M  V30 9 O 7.7942 0.0 0.0 0
M  V30 10 C 6.9282 -0.5 0.0 0
M  V30 11 C 6.0621 0.0 0.0 0
M  V30 12 C 6.9282 -1.5 0.0 0
M  V30 13 C 5.1961 -0.5 0.0 0
M  V30 14 C 6.0621 -2.0 0.0 0
M  V30 15 C 5.1961 -1.5 0.0 0
M  V30 16 C 4.3301 0.0 0.0 0
M  V30 17 C 3.4641 -0.5 0.0 0
M  V30 18 C 2.598 0.0 0.0 0
M  V30 19 C 1.732 -0.5 0.0 0
M  V30 20 C 0.866 0.0 0.0 0
M  V30 21 O 0.866 1.0 0.0 0
M  V30 22 O 0.0 -0.5 0.0 0
M  V30 END ATOM
M  V30 BEGIN BOND
M  V30 1 1 1 2
M  V30 2 2 2 3
M  V30 3 1 2 4
M  V30 4 1 3 5
M  V30 5 2 4 6
M  V30 6 1 5 7
M  V30 7 2 5 8
M  V30 8 1 6 9
M  V30 9 1 9 10
M  V30 10 2 10 11
M  V30 11 1 10 12
M  V30 12 1 11 13
M  V30 13 2 12 14
M  V30 14 2 13 15
M  V30 15 1 13 16
M  V30 16 2 16 17
M  V30 17 1 17 18
M  V30 18 2 18 19
M  V30 19 1 19 20
M  V30 20 2 20 21
M  V30 21 1 20 22
M  V30 22 1 6 8
M  V30 23 1 14 15
M  V30 END BOND
M  V30 END CTAB
M  END
>  <Column 1>
328

>  <Column 2>
PandemicResponseBox - Plate E

>  <Column 3>
H02

>  <Column 4>
MMV1633963

>  <Column 5>
10 mM

>  <Column 6>
ANTIVIRALS

>  <Column 7>


>  <Column 8>
None

>  <Column 9>


>  <Column 10>
ClC1=CC(=CC(=C1)OC2=CC(=CC=C2)\C=C\C=C\C(=O)O)Cl

>  <Column 11>
CHEMBL106454

>  <Column 12>


>  <Column 13>
335.2

>  <Column 14>
C17 H12 Cl2 O3

>  <Tox-Glu>
ATCTOX

>  <Column 15>


>  <Column 16>
98 

>  <Column 17>
66 

>  <Column 18>
9 

>  <Column 19>


>  <Tox-Gal>
CTOXGAL

>  <Column 20>


>  <Column 21>
102 

>  <Column 22>
53 

>  <Column 23>
1 

>  <Column 24>


>  <Column 25>


>  <PAMPA>
PAMPA

>  <Column 26>
undetected

>  <Column 27>
low sensitivity

>  <Column 28>


>  <Mouse>
ATMETMOU

>  <Column 29>
3

>  <Column 30>


$$$$
Compound 330
Actelion Java MolfileCreator 2.0

  0  0  0  0  0  0              0 V3000
M  V30 BEGIN CTAB
M  V30 COUNTS 20 22 0 0 0
M  V30 BEGIN ATOM
M  V30 1 O 2.7548 -2.2417 0.0 0
M  V30 2 C 4.222 -2.5536 0.0 0 CFG=1
M  V30 3 C 2.598 -0.75 0.0 0 CFG=1
M  V30 4 N 4.8322 -3.9239 0.0 0
M  V30 5 C 4.9721 -1.2546 0.0 0 CFG=1
M  V30 6 C 3.9684 -0.1398 0.0 0 CFG=2
M  V30 7 C 1.299 0.0 0.0 0
M  V30 8 C 4.0822 -5.223 0.0 0
M  V30 9 C 6.2994 -4.2358 0.0 0
M  V30 10 O 6.3423 -1.8647 0.0 0
M  V30 11 C 6.1855 -0.3729 0.0 0
M  V30 12 O 4.2802 1.3273 0.0 0
M  V30 13 O 0.0 -0.75 0.0 0
M  V30 14 N 2.6149 -5.5348 0.0 0
M  V30 15 C 5.0859 -6.3377 0.0 0
M  V30 16 C 6.4562 -5.7276 0.0 0
M  V30 17 C 2.1514 -6.9614 0.0 0
M  V30 18 C 4.6223 -7.7643 0.0 0
M  V30 19 N 3.1551 -8.0761 0.0 0
M  V30 20 N 5.626 -8.879 0.0 0
M  V30 END ATOM
M  V30 BEGIN BOND
M  V30 1 1 2 1
M  V30 2 1 3 1
M  V30 3 1 2 4 CFG=3
M  V30 4 1 5 2
M  V30 5 1 6 3
M  V30 6 1 3 7 CFG=3
M  V30 7 1 4 8
M  V30 8 1 4 9
M  V30 9 1 5 10 CFG=1
M  V30 10 1 5 11
M  V30 11 1 6 12 CFG=1
M  V30 12 1 7 13
M  V30 13 2 8 14
M  V30 14 1 8 15
M  V30 15 2 9 16
M  V30 16 1 14 17
M  V30 17 2 15 18
M  V30 18 2 17 19
M  V30 19 1 18 20
M  V30 20 1 5 6
M  V30 21 1 15 16
M  V30 22 1 18 19
M  V30 END BOND
M  V30 BEGIN COLLECTION
M  V30 MDLV30/STEABS ATOMS=(4 2 3 5 6)
M  V30 END COLLECTION
M  V30 END CTAB
M  END
>  <Column 1>
329

>  <Column 2>
PandemicResponseBox - Plate E

>  <Column 3>
A03

>  <Column 4>
MMV1593519

>  <Column 5>
10 mM

>  <Column 6>
ANTIVIRALS

>  <Column 7>


>  <Column 8>
None

>  <Column 9>
MK-0608

>  <Column 10>
O3[C@@H]([N]2C1=NC=NC(=C1C=C2)N)[C@@](O)(C)[C@@H]([C@H]3CO)O

>  <Column 11>
CHEMBL236207

>  <Column 12>


>  <Column 13>
280.3

>  <Column 14>
C12 H16 N4 O4

>  <Tox-Glu>
ATCTOX

>  <Column 15>


>  <Column 16>
103 

>  <Column 17>
107 

>  <Column 18>
90 

>  <Column 19>


>  <Tox-Gal>
CTOXGAL

>  <Column 20>


>  <Column 21>
103 

>  <Column 22>
98 

>  <Column 23>
92 

>  <Column 24>


>  <Column 25>


>  <PAMPA>
PAMPA

>  <Column 26>
<1

>  <Column 27>


>  <Column 28>


>  <Mouse>
ATMETMOU

>  <Column 29>


>  <Column 30>
Not determined; Large Blank Peak

$$$$
Compound 331
Actelion Java MolfileCreator 2.0

  0  0  0  0  0  0              0 V3000
M  V30 BEGIN CTAB
M  V30 COUNTS 24 27 0 0 0
M  V30 BEGIN ATOM
M  V30 1 S 6.3688 -3.1852 0.0 0
M  V30 2 C 5.1961 -2.2499 0.0 0
M  V30 3 C 7.8312 -2.8514 0.0 0
M  V30 4 C 5.1961 -0.75 0.0 0
M  V30 5 C 3.8971 -2.9999 0.0 0
M  V30 6 C 8.4821 -1.4999 0.0 0
M  V30 7 C 8.6762 -4.0908 0.0 0
M  V30 8 C 3.8971 0.0 0.0 0
M  V30 9 C 6.3688 0.1852 0.0 0 CFG=2
M  V30 10 C 2.598 -2.25 0.0 0
M  V30 11 C 9.9779 -1.3879 0.0 0
M  V30 12 C 7.8312 -0.1485 0.0 0
M  V30 13 C 10.172 -3.9787 0.0 0
M  V30 14 C 2.598 -0.75 0.0 0
M  V30 15 N 6.0351 1.6476 0.0 0
M  V30 16 C 10.8229 -2.6272 0.0 0
M  V30 17 S 1.299 0.0 0.0 0
M  V30 18 C 7.1346 2.6678 0.0 0
M  V30 19 C 4.6017 2.0897 0.0 0
M  V30 20 C 0.0 -0.75 0.0 0
M  V30 21 C 6.8009 4.1302 0.0 0
M  V30 22 C 4.2679 3.5521 0.0 0
M  V30 23 N 5.3675 4.5724 0.0 0
M  V30 24 C 5.0337 6.0348 0.0 0
M  V30 END ATOM
M  V30 BEGIN BOND
M  V30 1 1 1 2
M  V30 2 1 1 3
M  V30 3 2 2 4
M  V30 4 1 2 5
M  V30 5 2 3 6
M  V30 6 1 3 7
M  V30 7 1 4 8
M  V30 8 1 9 4
M  V30 9 2 5 10
M  V30 10 1 6 11
M  V30 11 1 6 12
M  V30 12 2 7 13
M  V30 13 2 8 14
M  V30 14 1 9 15 CFG=1
M  V30 15 2 11 16
M  V30 16 1 14 17
M  V30 17 1 15 18
M  V30 18 1 15 19
M  V30 19 1 17 20
M  V30 20 1 18 21
M  V30 21 1 19 22
M  V30 22 1 21 23
M  V30 23 1 23 24
M  V30 24 1 9 12
M  V30 25 1 10 14
M  V30 26 1 13 16
M  V30 27 1 22 23
M  V30 END BOND
M  V30 BEGIN COLLECTION
M  V30 MDLV30/STERAC1 ATOMS=(1 9)
M  V30 END COLLECTION
M  V30 END CTAB
M  END
>  <Column 1>
330

>  <Column 2>
PandemicResponseBox - Plate E

>  <Column 3>
B03

>  <Column 4>
MMV002505

>  <Column 5>
10 mM

>  <Column 6>
ANTIVIRALS

>  <Column 7>


>  <Column 8>
None

>  <Column 9>
Metitepine

>  <Column 10>
S3C1=C(C=C(SC)C=C1)C(N2CCN(C)CC2)CC4=C3C=CC=C4

>  <Column 11>
CHEMBL93240

>  <Column 12>


>  <Column 13>
356.6

>  <Column 14>
C20H24N2S2

>  <Tox-Glu>
ATCTOX

>  <Column 15>


>  <Column 16>
74 

>  <Column 17>
1 

>  <Column 18>
1 

>  <Column 19>


>  <Tox-Gal>
CTOXGAL

>  <Column 20>


>  <Column 21>
88 

>  <Column 22>
1 

>  <Column 23>
1 

>  <Column 24>


>  <Column 25>


>  <PAMPA>
PAMPA

>  <Column 26>
380

>  <Column 27>


>  <Column 28>


>  <Mouse>
ATMETMOU

>  <Column 29>
579

>  <Column 30>


$$$$
Compound 332
Actelion Java MolfileCreator 2.0

  0  0  0  0  0  0              0 V3000
M  V30 BEGIN CTAB
M  V30 COUNTS 29 31 0 0 0
M  V30 BEGIN ATOM
M  V30 1 Cl 9.0932 -3.0 0.0 0
M  V30 2 C 7.7942 -2.25 0.0 0
M  V30 3 C 7.7942 -0.75 0.0 0
M  V30 4 C 6.4951 -3.0 0.0 0
M  V30 5 S 9.0932 0.0 0.0 0
M  V30 6 C 6.4951 0.0 0.0 0
M  V30 7 C 5.1961 -2.25 0.0 0
M  V30 8 O 9.8432 -1.299 0.0 0
M  V30 9 O 10.5932 0.0 0.0 0
M  V30 10 C 9.0932 1.5 0.0 0 CFG=2
M  V30 11 O 6.4951 1.5 0.0 0
M  V30 12 C 5.1961 -0.75 0.0 0
M  V30 13 C 10.3923 2.25 0.0 0
M  V30 14 C 7.7942 2.25 0.0 0
M  V30 15 N 3.8971 0.0 0.0 0
M  V30 16 N 10.3923 3.75 0.0 0
M  V30 17 C 7.7942 3.75 0.0 0
M  V30 18 C 2.598 -0.75 0.0 0
M  V30 19 C 9.0932 4.5 0.0 0
M  V30 20 O 2.598 -2.25 0.0 0
M  V30 21 N 1.299 0.0 0.0 0
M  V30 22 C 0.0 -0.75 0.0 0
M  V30 23 C -1.299 0.0 0.0 0
M  V30 24 C 0.0 -2.25 0.0 0
M  V30 25 C -2.598 -0.75 0.0 0
M  V30 26 C -1.299 1.5 0.0 0
M  V30 27 C -1.299 -3.0 0.0 0
M  V30 28 F -3.8971 0.0 0.0 0
M  V30 29 C -2.598 -2.25 0.0 0
M  V30 END ATOM
M  V30 BEGIN BOND
M  V30 1 1 1 2
M  V30 2 2 2 3
M  V30 3 1 2 4
M  V30 4 1 3 5
M  V30 5 1 3 6
M  V30 6 2 4 7
M  V30 7 2 5 8
M  V30 8 2 5 9
M  V30 9 1 10 5 CFG=1
M  V30 10 1 6 11
M  V30 11 2 6 12
M  V30 12 1 10 13
M  V30 13 1 10 14
M  V30 14 1 12 15
M  V30 15 1 13 16
M  V30 16 1 14 17
M  V30 17 1 15 18
M  V30 18 1 16 19
M  V30 19 2 18 20
M  V30 20 1 18 21
M  V30 21 1 21 22
M  V30 22 2 22 23
M  V30 23 1 22 24
M  V30 24 1 23 25
M  V30 25 1 23 26
M  V30 26 2 24 27
M  V30 27 1 25 28
M  V30 28 2 25 29
M  V30 29 1 7 12
M  V30 30 1 17 19
M  V30 31 1 27 29
M  V30 END BOND
M  V30 BEGIN COLLECTION
M  V30 MDLV30/STEABS ATOMS=(1 10)
M  V30 END COLLECTION
M  V30 END CTAB
M  END
>  <Column 1>
331

>  <Column 2>
PandemicResponseBox - Plate E

>  <Column 3>
C03

>  <Column 4>
MMV1581034

>  <Column 5>
10 mM

>  <Column 6>
ANTIVIRALS

>  <Column 7>
1

>  <Column 8>
Hydrochloric acid

>  <Column 9>
Danirixin

>  <Column 10>
ClC3=C([S](=O)(=O)[C@@H]1CNCCC1)C(=C(NC(=O)NC2=C(C(=CC=C2)F)C)C=C3)O

>  <Column 11>
CHEMBL3039531

>  <Column 12>


>  <Column 13>
478.4

>  <Column 14>
C19 H21 Cl F N3 O4 S

>  <Tox-Glu>
ATCTOX

>  <Column 15>


>  <Column 16>
98 

>  <Column 17>
103 

>  <Column 18>
94 

>  <Column 19>


>  <Tox-Gal>
CTOXGAL

>  <Column 20>


>  <Column 21>
95 

>  <Column 22>
98 

>  <Column 23>
93 

>  <Column 24>


>  <Column 25>


>  <PAMPA>
PAMPA

>  <Column 26>
31

>  <Column 27>


>  <Column 28>


>  <Mouse>
ATMETMOU

>  <Column 29>
-11

>  <Column 30>


$$$$
Compound 333
Actelion Java MolfileCreator 2.0

  0  0  0  0  0  0              0 V3000
M  V30 BEGIN CTAB
M  V30 COUNTS 24 25 0 0 0
M  V30 BEGIN ATOM
M  V30 1 O 7.7942 0.0 0.0 0
M  V30 2 C 6.9282 -0.5 0.0 0
M  V30 3 O 6.9282 -1.4999 0.0 0
M  V30 4 C 6.0621 0.0 0.0 0 CFG=1
M  V30 5 N 5.1961 -0.5 0.0 0
M  V30 6 C 6.0621 1.0 0.0 0
M  V30 7 C 5.1961 -1.4999 0.0 0
M  V30 8 C 5.1961 1.5 0.0 0
M  V30 9 O 4.3301 -1.9999 0.0 0
M  V30 10 C 6.0621 -1.9999 0.0 0
M  V30 11 C 5.0916 2.4945 0.0 0
M  V30 12 C 4.2826 1.0932 0.0 0
M  V30 13 C 6.0621 -3.0 0.0 0
M  V30 14 C 4.1134 2.7024 0.0 0
M  V30 15 C 5.7607 3.2376 0.0 0
M  V30 16 N 3.6134 1.8364 0.0 0
M  V30 17 C 6.9282 -3.5 0.0 0 CFG=1
M  V30 18 C 3.8044 3.6534 0.0 0
M  V30 19 C 5.4517 4.1887 0.0 0
M  V30 20 N 7.7942 -2.9999 0.0 0
M  V30 21 C 6.9282 -4.5 0.0 0
M  V30 22 C 4.4735 4.3966 0.0 0
M  V30 23 O 6.0621 -5.0 0.0 0
M  V30 24 O 7.7942 -5.0 0.0 0
M  V30 END ATOM
M  V30 BEGIN BOND
M  V30 1 2 1 2
M  V30 2 1 2 3
M  V30 3 1 4 2
M  V30 4 1 4 5 CFG=1
M  V30 5 1 4 6
M  V30 6 1 5 7
M  V30 7 1 6 8
M  V30 8 2 7 9
M  V30 9 1 7 10
M  V30 10 1 8 11
M  V30 11 2 8 12
M  V30 12 1 10 13
M  V30 13 2 11 14
M  V30 14 1 11 15
M  V30 15 1 12 16
M  V30 16 1 17 13
M  V30 17 1 14 18
M  V30 18 2 15 19
M  V30 19 1 17 20 CFG=1
M  V30 20 1 17 21
M  V30 21 2 18 22
M  V30 22 2 21 23
M  V30 23 1 21 24
M  V30 24 1 14 16
M  V30 25 1 19 22
M  V30 END BOND
M  V30 BEGIN COLLECTION
M  V30 MDLV30/STEABS ATOMS=(2 4 17)
M  V30 END COLLECTION
M  V30 END CTAB
M  END
>  <Column 1>
332

>  <Column 2>
PandemicResponseBox - Plate E

>  <Column 3>
D03

>  <Column 4>
MMV1581033

>  <Column 5>
10 mM

>  <Column 6>
ANTIVIRALS

>  <Column 7>
1

>  <Column 8>
Free Base/Acid

>  <Column 9>
Golotimod

>  <Column 10>
O=C(O)[C@@H](NC(=O)CC[C@@H](N)C(=O)O)CC1=C[NH]C2=C1C=CC=C2

>  <Column 11>
CHEMBL2103812

>  <Column 12>


>  <Column 13>
333.3

>  <Column 14>
C16 H19 N3 O5

>  <Tox-Glu>
ATCTOX

>  <Column 15>


>  <Column 16>
97 

>  <Column 17>
99 

>  <Column 18>
96 

>  <Column 19>


>  <Tox-Gal>
CTOXGAL

>  <Column 20>


>  <Column 21>
98 

>  <Column 22>
98 

>  <Column 23>
97 

>  <Column 24>


>  <Column 25>


>  <PAMPA>
PAMPA

>  <Column 26>
<3

>  <Column 27>


>  <Column 28>


>  <Mouse>
ATMETMOU

>  <Column 29>


>  <Column 30>
Not determined; Low sensitivity

$$$$
Compound 334
Actelion Java MolfileCreator 2.0

  0  0  0  0  0  0              0 V3000
M  V30 BEGIN CTAB
M  V30 COUNTS 58 63 0 0 0
M  V30 BEGIN ATOM
M  V30 1 F 13.7716 4.2342 0.0 0
M  V30 2 C 12.4013 4.8443 0.0 0
M  V30 3 C 11.1878 3.9627 0.0 0
M  V30 4 C 12.2445 6.3361 0.0 0
M  V30 5 C 9.8175 4.5728 0.0 0
M  V30 6 C 10.8742 6.9462 0.0 0
M  V30 7 N 8.4472 3.9627 0.0 0
M  V30 8 C 9.6607 6.0645 0.0 0
M  V30 9 C 7.4435 5.0774 0.0 0
M  V30 10 C 8.1935 6.3764 0.0 0
M  V30 11 C 5.9517 4.9206 0.0 0
M  V30 12 C 7.5834 7.7467 0.0 0
M  V30 13 N 4.948 6.0353 0.0 0
M  V30 14 C 5.2017 3.6215 0.0 0
M  V30 15 C 8.465 8.9602 0.0 0 CFG=1
M  V30 16 C 3.5777 5.4252 0.0 0
M  V30 17 C 3.7345 3.9334 0.0 0
M  V30 18 C 5.8118 2.2512 0.0 0
M  V30 19 N 8.0015 10.3868 0.0 0
M  V30 20 C 9.965 8.9602 0.0 0
M  V30 21 C 2.2073 6.0353 0.0 0
M  V30 22 C 2.5209 3.0517 0.0 0
M  V30 23 C 4.9301 1.0377 0.0 0 CFG=1
M  V30 24 C 6.5749 10.8504 0.0 0
M  V30 25 C 9.215 11.2685 0.0 0
M  V30 26 C 10.4286 10.3868 0.0 0 CFG=1
M  V30 27 C 0.9938 5.1536 0.0 0
M  V30 28 C 1.1506 3.6618 0.0 0
M  V30 29 N 5.3936 -0.3888 0.0 0
M  V30 30 C 3.4301 1.0377 0.0 0
M  V30 31 O 6.2631 12.3176 0.0 0
M  V30 32 C 5.4602 9.8467 0.0 0 CFG=1
M  V30 33 O 11.8551 10.8504 0.0 0
M  V30 34 F -0.3764 5.7637 0.0 0
M  V30 35 C 6.8202 -0.8523 0.0 0
M  V30 36 C 4.1801 -1.2705 0.0 0
M  V30 37 C 2.9666 -0.3888 0.0 0 CFG=1
M  V30 38 N 4.0336 10.3102 0.0 0
M  V30 39 C 5.7721 8.3794 0.0 0
M  V30 40 O 7.9349 0.1513 0.0 0
M  V30 41 C 7.1321 -2.3195 0.0 0 CFG=1
M  V30 42 O 1.54 -0.8523 0.0 0
M  V30 43 C 2.9189 9.3065 0.0 0
M  V30 44 C 4.6574 7.3757 0.0 0
M  V30 45 N 8.5587 -2.7831 0.0 0
M  V30 46 C 6.0174 -3.3232 0.0 0
M  V30 47 O 3.2308 7.8393 0.0 0
M  V30 48 C 1.4923 9.77 0.0 0 CFG=1
M  V30 49 C 8.8705 -4.2503 0.0 0
M  V30 50 C 6.3292 -4.7905 0.0 0
M  V30 51 N 0.3776 8.7663 0.0 0
M  V30 52 C 1.1805 11.2372 0.0 0
M  V30 53 O 7.7558 -5.254 0.0 0
M  V30 54 C 10.2971 -4.7138 0.0 0 CFG=1
M  V30 55 C -1.0489 9.2298 0.0 0
M  V30 56 N 10.609 -6.181 0.0 0
M  V30 57 C 11.4118 -3.7101 0.0 0
M  V30 58 C 12.0356 -6.6446 0.0 0
M  V30 END ATOM
M  V30 BEGIN BOND
M  V30 1 1 1 2
M  V30 2 2 2 3
M  V30 3 1 2 4
M  V30 4 1 3 5
M  V30 5 2 4 6
M  V30 6 1 5 7
M  V30 7 2 5 8
M  V30 8 1 7 9
M  V30 9 1 8 10
M  V30 10 1 9 11
M  V30 11 1 10 12
M  V30 12 1 11 13
M  V30 13 2 11 14
M  V30 14 1 15 12 CFG=1
M  V30 15 1 13 16
M  V30 16 1 14 17
M  V30 17 1 14 18
M  V30 18 1 15 19
M  V30 19 1 15 20
M  V30 20 1 16 21
M  V30 21 1 17 22
M  V30 22 1 23 18 CFG=1
M  V30 23 1 19 24
M  V30 24 1 19 25
M  V30 25 1 26 20
M  V30 26 2 21 27
M  V30 27 2 22 28
M  V30 28 1 23 29
M  V30 29 1 23 30
M  V30 30 2 24 31
M  V30 31 1 32 24
M  V30 32 1 26 33 CFG=1
M  V30 33 1 27 34
M  V30 34 1 29 35
M  V30 35 1 29 36
M  V30 36 1 37 30
M  V30 37 1 32 38 CFG=3
M  V30 38 1 32 39
M  V30 39 2 35 40
M  V30 40 1 41 35
M  V30 41 1 37 42 CFG=1
M  V30 42 1 38 43
M  V30 43 1 39 44
M  V30 44 1 41 45 CFG=1
M  V30 45 1 41 46
M  V30 46 2 43 47
M  V30 47 1 48 43
M  V30 48 1 45 49
M  V30 49 1 46 50
M  V30 50 1 48 51 CFG=1
M  V30 51 1 48 52
M  V30 52 2 49 53
M  V30 53 1 54 49
M  V30 54 1 51 55
M  V30 55 1 54 56 CFG=3
M  V30 56 1 54 57
M  V30 57 1 56 58
M  V30 58 1 6 8
M  V30 59 2 9 10
M  V30 60 2 16 17
M  V30 61 1 25 26
M  V30 62 1 27 28
M  V30 63 1 36 37
M  V30 END BOND
M  V30 BEGIN COLLECTION
M  V30 MDLV30/STEABS ATOMS=(8 15 23 26 32 37 41 48 54)
M  V30 END COLLECTION
M  V30 END CTAB
M  END
>  <Column 1>
333

>  <Column 2>
PandemicResponseBox - Plate E

>  <Column 3>
E03

>  <Column 4>
MMV1557856

>  <Column 5>
10 mM

>  <Column 6>
ANTIVIRALS

>  <Column 7>


>  <Column 8>
None

>  <Column 9>
Birinapant

>  <Column 10>
FC6=CC1=C(C(=C([NH]1)C2=C(C3=C([NH]2)C=C(F)C=C3)C[C@H]4N(C(=O)[C@@H](NC(=O)[C@@H](NC)C)CC)C[C@H](C4)O)C[C@H]5N(C(=O)[C@@H](NC(=O)[C@@H](NC)C)CC)C[C@H](C5)O)C=C6

>  <Column 11>
CHEMBL3039522

>  <Column 12>


>  <Column 13>
806.9

>  <Column 14>
C42 H56 F2 N8 O6

>  <Tox-Glu>
ATCTOX

>  <Column 15>


>  <Column 16>
81 

>  <Column 17>
74 

>  <Column 18>
1 

>  <Column 19>


>  <Tox-Gal>
CTOXGAL

>  <Column 20>


>  <Column 21>
90 

>  <Column 22>
83 

>  <Column 23>
7 

>  <Column 24>


>  <Column 25>


>  <PAMPA>
PAMPA

>  <Column 26>
<12

>  <Column 27>


>  <Column 28>


>  <Mouse>
ATMETMOU

>  <Column 29>


>  <Column 30>
Not determined; Broad Peak

$$$$
Compound 335
Actelion Java MolfileCreator 2.0

  0  0  0  0  0  0              0 V3000
M  V30 BEGIN CTAB
M  V30 COUNTS 29 33 0 0 0
M  V30 BEGIN ATOM
M  V30 1 O 1.732 -0.5 0.0 0
M  V30 2 N 0.866 0.0 0.0 0 CHG=1 VAL=5
M  V30 3 O 0.866 1.0 0.0 0 CHG=-1
M  V30 4 C 0.0 -0.5 0.0 0
M  V30 5 C 0.0 -1.5 0.0 0
M  V30 6 C -0.866 0.0 0.0 0
M  V30 7 C -0.866 -1.9999 0.0 0
M  V30 8 C 0.866 -2.0 0.0 0
M  V30 9 C -1.732 -0.4999 0.0 0
M  V30 10 N -0.866 -2.9999 0.0 0
M  V30 11 C -1.732 -1.4999 0.0 0
M  V30 12 C 0.866 -3.0 0.0 0
M  V30 13 C 0.0 -3.5 0.0 0
M  V30 14 C 1.6091 -3.6691 0.0 0
M  V30 15 C 0.2079 -4.4781 0.0 0
M  V30 16 N 1.2024 -4.5826 0.0 0
M  V30 17 C -0.3798 -5.2871 0.0 0
M  V30 18 C 1.6091 -5.4962 0.0 0
M  V30 19 C 0.0268 -6.2007 0.0 0
M  V30 20 O 2.6036 -5.6007 0.0 0
M  V30 21 C 1.0213 -6.3052 0.0 0
M  V30 22 C -0.5609 -7.0097 0.0 0 CFG=2
M  V30 23 C 1.4281 -7.2187 0.0 0
M  V30 24 O -0.9676 -6.0961 0.0 0
M  V30 25 C -0.1541 -7.9232 0.0 0
M  V30 26 C -1.5554 -6.9051 0.0 0
M  V30 27 O 0.8403 -8.0278 0.0 0
M  V30 28 O -0.7419 -8.7322 0.0 0
M  V30 29 C -1.9621 -5.9916 0.0 0
M  V30 END ATOM
M  V30 BEGIN BOND
M  V30 1 2 1 2
M  V30 2 1 2 3
M  V30 3 1 2 4
M  V30 4 1 4 5
M  V30 5 2 4 6
M  V30 6 1 5 7
M  V30 7 2 5 8
M  V30 8 1 6 9
M  V30 9 2 7 10
M  V30 10 1 7 11
M  V30 11 1 8 12
M  V30 12 1 10 13
M  V30 13 1 12 14
M  V30 14 1 13 15
M  V30 15 1 14 16
M  V30 16 2 15 17
M  V30 17 1 16 18
M  V30 18 1 17 19
M  V30 19 2 18 20
M  V30 20 1 18 21
M  V30 21 1 22 19
M  V30 22 1 21 23
M  V30 23 1 22 24 CFG=1
M  V30 24 1 22 25
M  V30 25 1 22 26
M  V30 26 1 23 27
M  V30 27 2 25 28
M  V30 28 1 26 29
M  V30 29 2 9 11
M  V30 30 2 12 13
M  V30 31 1 15 16
M  V30 32 2 19 21
M  V30 33 1 25 27
M  V30 END BOND
M  V30 BEGIN COLLECTION
M  V30 MDLV30/STEABS ATOMS=(1 22)
M  V30 END COLLECTION
M  V30 END CTAB
M  END
>  <Column 1>
334

>  <Column 2>
PandemicResponseBox - Plate E

>  <Column 3>
F03

>  <Column 4>
MMV1580796

>  <Column 5>
10 mM

>  <Column 6>
ANTIVIRALS

>  <Column 7>


>  <Column 8>
None

>  <Column 9>
Rubitecan

>  <Column 10>
O=[N](=O)C1=CC=CC2=NC3=C(C=C12)C[N]4[C](=O)C5=C(C=C34)[C@](O)(C(=O)OC5)CC

>  <Column 11>
CHEMBL77305

>  <Column 12>
Anticancer Research (2003), 23(5A), 3623-3638

>  <Column 13>
393.3

>  <Column 14>
C20 H15 N3 O6

>  <Tox-Glu>
ATCTOX

>  <Column 15>


>  <Column 16>
44 

>  <Column 17>
49 

>  <Column 18>
48 

>  <Column 19>


>  <Tox-Gal>
CTOXGAL

>  <Column 20>


>  <Column 21>
75 

>  <Column 22>
88 

>  <Column 23>
89 

>  <Column 24>


>  <Column 25>


>  <PAMPA>
PAMPA

>  <Column 26>
168

>  <Column 27>


>  <Column 28>


>  <Mouse>
ATMETMOU

>  <Column 29>
49

>  <Column 30>


$$$$
Compound 336
Actelion Java MolfileCreator 2.0

  0  0  0  0  0  0              0 V3000
M  V30 BEGIN CTAB
M  V30 COUNTS 32 36 0 0 0
M  V30 BEGIN ATOM
M  V30 1 O 7.7942 4.0 0.0 0
M  V30 2 C 7.7942 3.0 0.0 0
M  V30 3 N 6.9282 2.5 0.0 0
M  V30 4 C 8.6602 2.5 0.0 0
M  V30 5 C 6.0621 3.0 0.0 0
M  V30 6 C 6.9282 1.5 0.0 0
M  V30 7 C 8.6602 1.5 0.0 0
M  V30 8 C 9.5262 3.0 0.0 0
M  V30 9 C 5.1961 2.5 0.0 0
M  V30 10 C 6.0621 1.0 0.0 0
M  V30 11 C 9.5262 1.0 0.0 0
M  V30 12 C 10.3923 2.5 0.0 0
M  V30 13 N 5.1961 1.5 0.0 0
M  V30 14 C 10.3923 1.5 0.0 0
M  V30 15 C 4.3301 1.0 0.0 0
M  V30 16 C 3.4641 1.5 0.0 0
M  V30 17 C 4.3301 0.0 0.0 0
M  V30 18 C 2.598 0.9999 0.0 0
M  V30 19 C 3.4641 -0.4999 0.0 0
M  V30 20 C 2.598 0.0 0.0 0
M  V30 21 N 1.732 -0.5 0.0 0
M  V30 22 C 0.866 0.0 0.0 0
M  V30 23 O 0.866 1.0 0.0 0
M  V30 24 C 0.0 -0.5 0.0 0
M  V30 25 C -0.866 0.0 0.0 0
M  V30 26 C 0.0 -1.4999 0.0 0
M  V30 27 C -1.732 -0.4999 0.0 0
M  V30 28 C -0.866 -1.9999 0.0 0
M  V30 29 O -2.6831 -0.1909 0.0 0
M  V30 30 C -1.732 -1.4999 0.0 0
M  V30 31 C -3.2708 -0.9999 0.0 0
M  V30 32 O -2.6831 -1.809 0.0 0
M  V30 END ATOM
M  V30 BEGIN BOND
M  V30 1 2 1 2
M  V30 2 1 2 3
M  V30 3 1 2 4
M  V30 4 1 3 5
M  V30 5 1 3 6
M  V30 6 2 4 7
M  V30 7 1 4 8
M  V30 8 1 5 9
M  V30 9 1 6 10
M  V30 10 1 7 11
M  V30 11 2 8 12
M  V30 12 1 9 13
M  V30 13 2 11 14
M  V30 14 1 13 15
M  V30 15 2 15 16
M  V30 16 1 15 17
M  V30 17 1 16 18
M  V30 18 2 17 19
M  V30 19 2 18 20
M  V30 20 1 20 21
M  V30 21 1 21 22
M  V30 22 2 22 23
M  V30 23 1 22 24
M  V30 24 2 24 25
M  V30 25 1 24 26
M  V30 26 1 25 27
M  V30 27 2 26 28
M  V30 28 1 27 29
M  V30 29 2 27 30
M  V30 30 1 29 31
M  V30 31 1 30 32
M  V30 32 1 10 13
M  V30 33 1 12 14
M  V30 34 1 19 20
M  V30 35 1 28 30
M  V30 36 1 31 32
M  V30 END BOND
M  V30 END CTAB
M  END
>  <Column 1>
335

>  <Column 2>
PandemicResponseBox - Plate E

>  <Column 3>
G03

>  <Column 4>
MMV1580505

>  <Column 5>
10 mM

>  <Column 6>
ANTIVIRALS

>  <Column 7>


>  <Column 8>
None

>  <Column 9>


>  <Column 10>
O=C(N4CCN(C3=CC=C(NC(=O)C2=CC1=C(OCO1)C=C2)C=C3)CC4)C5=CC=CC=C5

>  <Column 11>
CHEMBL1469003

>  <Column 12>
�US 20090163545�

>  <Column 13>
429.5

>  <Column 14>
C25 H23 N3 O4

>  <Tox-Glu>
ATCTOX

>  <Column 15>


>  <Column 16>
103 

>  <Column 17>
94 

>  <Column 18>
91 

>  <Column 19>


>  <Tox-Gal>
CTOXGAL

>  <Column 20>


>  <Column 21>
100 

>  <Column 22>
77 

>  <Column 23>
56 

>  <Column 24>


>  <Column 25>


>  <PAMPA>
PAMPA

>  <Column 26>
328

>  <Column 27>


>  <Column 28>


>  <Mouse>
ATMETMOU

>  <Column 29>
50

>  <Column 30>


$$$$
Compound 337
Actelion Java MolfileCreator 2.0

  0  0  0  0  0  0              0 V3000
M  V30 BEGIN CTAB
M  V30 COUNTS 26 29 0 0 0
M  V30 BEGIN ATOM
M  V30 1 F 3.4641 -4.4999 0.0 0
M  V30 2 C 3.4641 -3.4999 0.0 0
M  V30 3 C 4.3301 -3.0 0.0 0
M  V30 4 C 2.598 -2.9999 0.0 0
M  V30 5 N 5.1961 -3.5 0.0 0
M  V30 6 C 4.3301 -1.9999 0.0 0
M  V30 7 C 2.598 -2.0 0.0 0
M  V30 8 C 5.1961 -4.5 0.0 0
M  V30 9 C 6.0621 -3.0 0.0 0
M  V30 10 O 5.1961 -1.4999 0.0 0
M  V30 11 C 3.4641 -1.5 0.0 0
M  V30 12 C 1.732 -1.5 0.0 0
M  V30 13 C 6.0621 -5.0 0.0 0
M  V30 14 C 6.9282 -3.5 0.0 0
M  V30 15 C 5.1961 -0.4999 0.0 0
M  V30 16 N 3.4641 -0.5 0.0 0
M  V30 17 O 0.866 -2.0 0.0 0
M  V30 18 C 1.732 -0.5 0.0 0
M  V30 19 N 6.9282 -4.5 0.0 0
M  V30 20 C 4.3301 0.0 0.0 0 CFG=1
M  V30 21 C 2.598 0.0 0.0 0
M  V30 22 C 0.866 0.0 0.0 0
M  V30 23 C 7.7942 -5.0 0.0 0
M  V30 24 C 4.3301 0.9999 0.0 0
M  V30 25 O 0.866 1.0 0.0 0
M  V30 26 O 0.0 -0.5 0.0 0
M  V30 END ATOM
M  V30 BEGIN BOND
M  V30 1 1 1 2
M  V30 2 2 2 3
M  V30 3 1 2 4
M  V30 4 1 3 5
M  V30 5 1 3 6
M  V30 6 2 4 7
M  V30 7 1 5 8
M  V30 8 1 5 9
M  V30 9 1 6 10
M  V30 10 2 6 11
M  V30 11 1 7 12
M  V30 12 1 8 13
M  V30 13 1 9 14
M  V30 14 1 10 15
M  V30 15 1 11 16
M  V30 16 2 12 17
M  V30 17 1 12 18
M  V30 18 1 13 19
M  V30 19 1 20 15
M  V30 20 1 16 21
M  V30 21 1 18 22
M  V30 22 1 19 23
M  V30 23 1 20 24 CFG=1
M  V30 24 2 22 25
M  V30 25 1 22 26
M  V30 26 1 7 11
M  V30 27 1 14 19
M  V30 28 1 16 20
M  V30 29 2 18 21
M  V30 END BOND
M  V30 BEGIN COLLECTION
M  V30 MDLV30/STEABS ATOMS=(1 20)
M  V30 END COLLECTION
M  V30 END CTAB
M  END
>  <Column 1>
336

>  <Column 2>
PandemicResponseBox - Plate E

>  <Column 3>
H03

>  <Column 4>
MMV687798

>  <Column 5>
10 mM

>  <Column 6>
ANTIVIRALS

>  <Column 7>


>  <Column 8>
None

>  <Column 9>
Levofloxacin

>  <Column 10>
FC3=C(N1CCN(C)CC1)C4=C2[N](C=C([C](C2=C3)=O)C(=O)O)[C@H](CO4)C

>  <Column 11>
CHEMBL33

>  <Column 12>
 Antimicrobial Agents and Chemotherapy (2012), 56(8), 4052-406

>  <Column 13>
361.4

>  <Column 14>
C18H20FN3O4

>  <Tox-Glu>
ATCTOX

>  <Column 15>


>  <Column 16>
98 

>  <Column 17>
100 

>  <Column 18>
98 

>  <Column 19>


>  <Tox-Gal>
CTOXGAL

>  <Column 20>


>  <Column 21>
101 

>  <Column 22>
98 

>  <Column 23>
99 

>  <Column 24>


>  <Column 25>


>  <PAMPA>
PAMPA

>  <Column 26>
79

>  <Column 27>


>  <Column 28>


>  <Mouse>
ATMETMOU

>  <Column 29>
-28

>  <Column 30>
Large variations

$$$$
Compound 338
Actelion Java MolfileCreator 2.0

  0  0  0  0  0  0              0 V3000
M  V30 BEGIN CTAB
M  V30 COUNTS 32 36 0 0 0
M  V30 BEGIN ATOM
M  V30 1 O 5.1961 2.5 0.0 0
M  V30 2 C 5.1961 1.5 0.0 0
M  V30 3 C 6.0621 1.0 0.0 0
M  V30 4 C 4.3301 1.0 0.0 0
M  V30 5 C 6.0621 0.0 0.0 0
M  V30 6 C 4.3301 0.0 0.0 0
M  V30 7 C 5.1961 -0.4999 0.0 0
M  V30 8 C 6.9282 -0.4999 0.0 0
M  V30 9 C 5.1961 -1.4999 0.0 0
M  V30 10 C 6.9282 -1.4999 0.0 0
M  V30 11 C 4.3301 -2.0 0.0 0 CFG=1
M  V30 12 C 6.0621 -1.9999 0.0 0 CFG=1
M  V30 13 C 3.4641 -1.4999 0.0 0
M  V30 14 C 4.3301 -3.0 0.0 0
M  V30 15 C 6.0621 -2.9999 0.0 0 CFG=1
M  V30 16 C 3.4641 -0.5 0.0 0
M  V30 17 C 2.598 -1.9999 0.0 0
M  V30 18 C 5.1961 -3.4999 0.0 0 CFG=1
M  V30 19 C 6.8053 -3.6691 0.0 0
M  V30 20 C 2.598 0.0 0.0 0
M  V30 21 C 1.732 -1.5 0.0 0
M  V30 22 C 5.404 -4.4781 0.0 0 CFG=2
M  V30 23 C 4.3871 -4.0877 0.0 0
M  V30 24 C 6.3985 -4.5826 0.0 0
M  V30 25 C 1.732 -0.5 0.0 0
M  V30 26 O 5.7624 -5.4117 0.0 0
M  V30 27 C 4.7349 -5.2212 0.0 0
M  V30 28 N 0.866 0.0 0.0 0
M  V30 29 C 4.0658 -5.9644 0.0 0
M  V30 30 C 0.866 1.0 0.0 0
M  V30 31 C 0.0 -0.5 0.0 0
M  V30 32 C 3.3966 -6.7075 0.0 0
M  V30 END ATOM
M  V30 BEGIN BOND
M  V30 1 2 1 2
M  V30 2 1 2 3
M  V30 3 1 2 4
M  V30 4 2 3 5
M  V30 5 1 4 6
M  V30 6 1 5 7
M  V30 7 1 5 8
M  V30 8 2 7 9
M  V30 9 1 8 10
M  V30 10 1 11 9
M  V30 11 1 12 9
M  V30 12 1 11 13 CFG=3
M  V30 13 1 11 14
M  V30 14 1 15 12
M  V30 15 2 13 16
M  V30 16 1 13 17
M  V30 17 1 18 14
M  V30 18 1 15 19 CFG=3
M  V30 19 1 16 20
M  V30 20 2 17 21
M  V30 21 1 22 18
M  V30 22 1 18 23 CFG=3
M  V30 23 1 19 24
M  V30 24 2 20 25
M  V30 25 1 22 26 CFG=3
M  V30 26 1 22 27
M  V30 27 1 25 28
M  V30 28 3 27 29
M  V30 29 1 28 30
M  V30 30 1 28 31
M  V30 31 1 29 32
M  V30 32 1 6 7
M  V30 33 1 12 10 CFG=1
M  V30 34 1 15 18
M  V30 35 1 21 25
M  V30 36 1 22 24
M  V30 END BOND
M  V30 BEGIN COLLECTION
M  V30 MDLV30/STEABS ATOMS=(5 11 12 15 18 22)
M  V30 END COLLECTION
M  V30 END CTAB
M  END
>  <Column 1>
337

>  <Column 2>
PandemicResponseBox - Plate E

>  <Column 3>
A04

>  <Column 4>
MMV003297

>  <Column 5>
10 mM

>  <Column 6>
ANTIVIRALS

>  <Column 7>


>  <Column 8>
None

>  <Column 9>
Mifepristone

>  <Column 10>
CC#C[C@]1(O)CC[C@H]2[C@@H]3CCC4=CC(=O)CCC4=C3[C@H](C[C@]12C)c5ccc(cc5)N(C)C

>  <Column 11>
CHEMBL1276308

>  <Column 12>


>  <Column 13>
429.6

>  <Column 14>
C29H35NO2

>  <Tox-Glu>
ATCTOX

>  <Column 15>


>  <Column 16>
86 

>  <Column 17>
48 

>  <Column 18>
29 

>  <Column 19>


>  <Tox-Gal>
CTOXGAL

>  <Column 20>


>  <Column 21>
100 

>  <Column 22>
6 

>  <Column 23>
0 

>  <Column 24>


>  <Column 25>


>  <PAMPA>
PAMPA

>  <Column 26>
409

>  <Column 27>


>  <Column 28>


>  <Mouse>
ATMETMOU

>  <Column 29>
167

>  <Column 30>


$$$$
Compound 339
Actelion Java MolfileCreator 2.0

  0  0  0  0  0  0              0 V3000
M  V30 BEGIN CTAB
M  V30 COUNTS 29 32 0 0 0
M  V30 BEGIN ATOM
M  V30 1 O 8.6602 1.4999 0.0 0
M  V30 2 C 7.7942 0.9999 0.0 0
M  V30 3 N 6.9282 1.4999 0.0 0
M  V30 4 C 7.7942 0.0 0.0 0
M  V30 5 C 6.0621 0.9999 0.0 0
M  V30 6 O 6.9852 -0.5877 0.0 0
M  V30 7 C 8.6032 -0.5877 0.0 0
M  V30 8 C 5.1961 1.4999 0.0 0
M  V30 9 C 6.0621 0.0 0.0 0
M  V30 10 C 7.2942 -1.5388 0.0 0
M  V30 11 C 8.2942 -1.5388 0.0 0
M  V30 12 C 4.3301 0.9999 0.0 0
M  V30 13 C 5.1961 -0.5 0.0 0
M  V30 14 C 4.3301 0.0 0.0 0
M  V30 15 C 3.4641 -0.5 0.0 0
M  V30 16 N 2.598 0.0 0.0 0
M  V30 17 C 3.4641 -1.5 0.0 0
M  V30 18 N 1.732 -0.5 0.0 0
M  V30 19 C 0.866 0.0 0.0 0
M  V30 20 O 0.866 1.0 0.0 0
M  V30 21 C 0.0 -0.5 0.0 0
M  V30 22 C -1.0 -0.4999 0.0 0
M  V30 23 C -0.5 -1.366 0.0 0
M  V30 24 C -1.866 0.0 0.0 0
M  V30 25 C -1.866 1.0 0.0 0
M  V30 26 C -2.732 -0.4999 0.0 0
M  V30 27 C -2.732 1.5 0.0 0
M  V30 28 C -3.598 0.0 0.0 0
M  V30 29 C -3.598 1.0 0.0 0
M  V30 END ATOM
M  V30 BEGIN BOND
M  V30 1 2 1 2
M  V30 2 1 2 3
M  V30 3 1 2 4
M  V30 4 1 3 5
M  V30 5 1 4 6
M  V30 6 2 4 7
M  V30 7 2 5 8
M  V30 8 1 5 9
M  V30 9 1 6 10
M  V30 10 1 7 11
M  V30 11 1 8 12
M  V30 12 2 9 13
M  V30 13 2 12 14
M  V30 14 1 14 15
M  V30 15 2 15 16
M  V30 16 1 15 17
M  V30 17 1 16 18
M  V30 18 1 18 19
M  V30 19 2 19 20
M  V30 20 1 19 21
M  V30 21 1 21 22
M  V30 22 1 21 23
M  V30 23 1 22 24
M  V30 24 2 24 25
M  V30 25 1 24 26
M  V30 26 1 25 27
M  V30 27 2 26 28
M  V30 28 2 27 29
M  V30 29 2 10 11
M  V30 30 1 13 14
M  V30 31 1 22 23
M  V30 32 1 28 29
M  V30 END BOND
M  V30 END CTAB
M  END
>  <Column 1>
338

>  <Column 2>
PandemicResponseBox - Plate E

>  <Column 3>
B04

>  <Column 4>
MMV1580487

>  <Column 5>
10 mM

>  <Column 6>
ANTIVIRALS

>  <Column 7>


>  <Column 8>
None

>  <Column 9>
ST 161

>  <Column 10>
O=C(NC3=CC=C(\C(=N\NC(=O)C2C(C1=CC=CC=C1)C2)C)C=C3)C4=CC=CO4

>  <Column 11>


>  <Column 12>


>  <Column 13>
387.4

>  <Column 14>
C23 H21 N3 O3

>  <Tox-Glu>
ATCTOX

>  <Column 15>


>  <Column 16>
105 

>  <Column 17>
64 

>  <Column 18>
1 

>  <Column 19>


>  <Tox-Gal>
CTOXGAL

>  <Column 20>


>  <Column 21>
110 

>  <Column 22>
68 

>  <Column 23>
1 

>  <Column 24>


>  <Column 25>


>  <PAMPA>
PAMPA

>  <Column 26>
338

>  <Column 27>


>  <Column 28>


>  <Mouse>
ATMETMOU

>  <Column 29>
392

>  <Column 30>


$$$$
Compound 340
Actelion Java MolfileCreator 2.0

  0  0  0  0  0  0              0 V3000
M  V30 BEGIN CTAB
M  V30 COUNTS 27 29 0 0 0
M  V30 BEGIN ATOM
M  V30 1 Cl 1.732 1.4999 0.0 0
M  V30 2 C 2.598 1.0 0.0 0
M  V30 3 C 2.598 0.0 0.0 0
M  V30 4 C 3.4641 1.4999 0.0 0
M  V30 5 O 1.732 -0.5 0.0 0
M  V30 6 C 3.4641 -0.5 0.0 0
M  V30 7 C 4.3301 1.0 0.0 0
M  V30 8 C 0.866 0.0 0.0 0
M  V30 9 C 4.3301 0.0 0.0 0
M  V30 10 O 5.1961 1.5 0.0 0
M  V30 11 C 0.0 -0.5 0.0 0
M  V30 12 C 5.1961 2.5 0.0 0
M  V30 13 C -0.866 0.0 0.0 0
M  V30 14 C 0.0 -1.4999 0.0 0
M  V30 15 C -1.732 -0.4999 0.0 0
M  V30 16 C -0.866 -1.9999 0.0 0
M  V30 17 C -1.732 -1.4999 0.0 0
M  V30 18 C -2.598 -1.9999 0.0 0
M  V30 19 O -3.4641 -1.4999 0.0 0
M  V30 20 C -4.3301 -1.9999 0.0 0
M  V30 21 C -5.1961 -1.4999 0.0 0
M  V30 22 C -4.3301 -2.9999 0.0 0
M  V30 23 Cl -5.1961 -0.4999 0.0 0
M  V30 24 C -6.0621 -1.9999 0.0 0
M  V30 25 Cl -3.4641 -3.4999 0.0 0
M  V30 26 C -5.1961 -3.4999 0.0 0
M  V30 27 C -6.0621 -2.9999 0.0 0
M  V30 END ATOM
M  V30 BEGIN BOND
M  V30 1 1 1 2
M  V30 2 2 2 3
M  V30 3 1 2 4
M  V30 4 1 3 5
M  V30 5 1 3 6
M  V30 6 2 4 7
M  V30 7 1 5 8
M  V30 8 2 6 9
M  V30 9 1 7 10
M  V30 10 1 8 11
M  V30 11 1 10 12
M  V30 12 2 11 13
M  V30 13 1 11 14
M  V30 14 1 13 15
M  V30 15 2 14 16
M  V30 16 2 15 17
M  V30 17 1 17 18
M  V30 18 1 18 19
M  V30 19 1 19 20
M  V30 20 2 20 21
M  V30 21 1 20 22
M  V30 22 1 21 23
M  V30 23 1 21 24
M  V30 24 1 22 25
M  V30 25 2 22 26
M  V30 26 2 24 27
M  V30 27 1 7 9
M  V30 28 1 16 17
M  V30 29 1 26 27
M  V30 END BOND
M  V30 END CTAB
M  END
>  <Column 1>
339

>  <Column 2>
PandemicResponseBox - Plate E

>  <Column 3>
C04

>  <Column 4>
MMV1580485

>  <Column 5>
10 mM

>  <Column 6>
ANTIVIRALS

>  <Column 7>


>  <Column 8>
None

>  <Column 9>
Pocapavir

>  <Column 10>
ClC3=C(OCC2=CC=C(COC1=C(Cl)C=CC=C1Cl)C=C2)C=CC(=C3)OC

>  <Column 11>
CHEMBL1235858

>  <Column 12>


>  <Column 13>
423.7

>  <Column 14>
C21 H17 Cl3 O3

>  <Tox-Glu>
ATCTOX

>  <Column 15>


>  <Column 16>
97 

>  <Column 17>
97 

>  <Column 18>
93 

>  <Column 19>


>  <Tox-Gal>
CTOXGAL

>  <Column 20>


>  <Column 21>
99 

>  <Column 22>
90 

>  <Column 23>
88 

>  <Column 24>


>  <Column 25>


>  <PAMPA>
PAMPA

>  <Column 26>
undetected

>  <Column 27>
low sensitivity

>  <Column 28>


>  <Mouse>
ATMETMOU

>  <Column 29>


>  <Column 30>
Not determined; Low sensitivity

$$$$
Compound 341
Actelion Java MolfileCreator 2.0

  0  0  0  0  0  0              0 V3000
M  V30 BEGIN CTAB
M  V30 COUNTS 23 25 0 0 0
M  V30 BEGIN ATOM
M  V30 1 S 2.598 -0.75 0.0 0
M  V30 2 O 1.848 -2.049 0.0 0
M  V30 3 O 3.348 -2.049 0.0 0
M  V30 4 N 1.299 0.0 0.0 0
M  V30 5 C 3.8971 0.0 0.0 0
M  V30 6 C 0.0 -0.75 0.0 0
M  V30 7 C 5.1961 -0.75 0.0 0
M  V30 8 C 3.8971 1.5 0.0 0
M  V30 9 C -1.299 0.0 0.0 0
M  V30 10 C 0.0 -2.25 0.0 0
M  V30 11 C 6.4952 0.0 0.0 0
M  V30 12 C 5.1961 2.25 0.0 0
M  V30 13 N -1.299 1.5 0.0 0
M  V30 14 C -2.598 -0.75 0.0 0
M  V30 15 C -1.299 -3.0 0.0 0
M  V30 16 C 6.4952 1.5 0.0 0
M  V30 17 C -2.598 2.25 0.0 0
M  V30 18 C -2.598 -2.25 0.0 0
M  V30 19 C -3.8971 0.0 0.0 0
M  V30 20 O -1.299 -4.5 0.0 0
M  V30 21 C 7.7942 2.25 0.0 0
M  V30 22 C -3.8971 1.5 0.0 0
M  V30 23 C 0.0 -5.25 0.0 0
M  V30 END ATOM
M  V30 BEGIN BOND
M  V30 1 2 1 2
M  V30 2 2 1 3
M  V30 3 1 1 4
M  V30 4 1 1 5
M  V30 5 1 4 6
M  V30 6 2 5 7
M  V30 7 1 5 8
M  V30 8 1 6 9
M  V30 9 2 6 10
M  V30 10 1 7 11
M  V30 11 2 8 12
M  V30 12 2 9 13
M  V30 13 1 9 14
M  V30 14 1 10 15
M  V30 15 2 11 16
M  V30 16 1 13 17
M  V30 17 1 14 18
M  V30 18 2 14 19
M  V30 19 1 15 20
M  V30 20 1 16 21
M  V30 21 2 17 22
M  V30 22 1 20 23
M  V30 23 1 12 16
M  V30 24 2 15 18
M  V30 25 1 19 22
M  V30 END BOND
M  V30 END CTAB
M  END
>  <Column 1>
340

>  <Column 2>
PandemicResponseBox - Plate E

>  <Column 3>
D04

>  <Column 4>
MMV098836

>  <Column 5>
10 mM

>  <Column 6>
ANTIVIRALS

>  <Column 7>


>  <Column 8>
None

>  <Column 9>
DNDI1417411

>  <Column 10>
COc1cc(NS(=O)(=O)c2ccc(C)cc2)c3ncccc3c1

>  <Column 11>
CHEMBL1445650

>  <Column 12>
US 20110189260

>  <Column 13>
328.4

>  <Column 14>
C17H16N2O3S

>  <Tox-Glu>
ATCTOX

>  <Column 15>


>  <Column 16>
83 

>  <Column 17>
85 

>  <Column 18>
62 

>  <Column 19>


>  <Tox-Gal>
CTOXGAL

>  <Column 20>


>  <Column 21>
81 

>  <Column 22>
72 

>  <Column 23>
56 

>  <Column 24>


>  <Column 25>


>  <PAMPA>
PAMPA

>  <Column 26>
304

>  <Column 27>


>  <Column 28>


>  <Mouse>
ATMETMOU

>  <Column 29>
>768

>  <Column 30>


$$$$
Compound 342
Actelion Java MolfileCreator 2.0

  0  0  0  0  0  0              0 V3000
M  V30 BEGIN CTAB
M  V30 COUNTS 30 33 0 0 0
M  V30 BEGIN ATOM
M  V30 1 S 5.1961 -5.25 0.0 0
M  V30 2 O 4.4461 -3.9509 0.0 0
M  V30 3 O 3.6961 -5.25 0.0 0
M  V30 4 N 6.4951 -4.5 0.0 0
M  V30 5 C 5.1961 -6.75 0.0 0
M  V30 6 C 6.4951 -3.0 0.0 0
M  V30 7 C 3.8971 -7.5 0.0 0
M  V30 8 C 6.4951 -7.5 0.0 0
M  V30 9 C 7.7942 -2.25 0.0 0
M  V30 10 C 5.1961 -2.25 0.0 0
M  V30 11 N 2.598 -6.75 0.0 0
M  V30 12 C 3.8971 -9.0 0.0 0
M  V30 13 C 6.4951 -9.0 0.0 0
M  V30 14 C 7.7942 -0.75 0.0 0
M  V30 15 C 9.0932 -3.0 0.0 0
M  V30 16 C 5.1961 -0.75 0.0 0
M  V30 17 C 1.299 -7.5 0.0 0
M  V30 18 C 2.598 -9.75 0.0 0
M  V30 19 C 5.1961 -9.75 0.0 0
M  V30 20 C 6.4951 0.0 0.0 0
M  V30 21 C 9.0932 0.0 0.0 0
M  V30 22 C 10.3923 -2.25 0.0 0
M  V30 23 S 3.8971 0.0 0.0 0
M  V30 24 C 1.299 -9.0 0.0 0
M  V30 25 O 6.4951 1.5 0.0 0
M  V30 26 C 10.3923 -0.75 0.0 0
M  V30 27 C 2.598 -0.75 0.0 0
M  V30 28 C 1.299 0.0 0.0 0
M  V30 29 O 1.299 1.5 0.0 0
M  V30 30 O 0.0 -0.75 0.0 0
M  V30 END ATOM
M  V30 BEGIN BOND
M  V30 1 2 1 2
M  V30 2 2 1 3
M  V30 3 1 1 4
M  V30 4 1 1 5
M  V30 5 1 4 6
M  V30 6 1 5 7
M  V30 7 2 5 8
M  V30 8 1 6 9
M  V30 9 2 6 10
M  V30 10 2 7 11
M  V30 11 1 7 12
M  V30 12 1 8 13
M  V30 13 1 9 14
M  V30 14 2 9 15
M  V30 15 1 10 16
M  V30 16 1 11 17
M  V30 17 2 12 18
M  V30 18 1 12 19
M  V30 19 1 14 20
M  V30 20 2 14 21
M  V30 21 1 15 22
M  V30 22 1 16 23
M  V30 23 2 17 24
M  V30 24 1 20 25
M  V30 25 1 21 26
M  V30 26 1 23 27
M  V30 27 1 27 28
M  V30 28 2 28 29
M  V30 29 1 28 30
M  V30 30 2 13 19
M  V30 31 2 16 20
M  V30 32 1 18 24
M  V30 33 2 22 26
M  V30 END BOND
M  V30 END CTAB
M  END
>  <Column 1>
341

>  <Column 2>
PandemicResponseBox - Plate E

>  <Column 3>
E04

>  <Column 4>
MMV218827

>  <Column 5>
10 mM

>  <Column 6>
ANTIVIRALS

>  <Column 7>


>  <Column 8>
None

>  <Column 9>


>  <Column 10>
[S](=O)(=O)(NC1=CC(=C(C2=CC=CC=C12)O)SCC(=O)O)C3=CC=CC4=CC=CN=C34

>  <Column 11>
CHEMBL3185602

>  <Column 12>


>  <Column 13>
440.5

>  <Column 14>
C21H16N2O5S2

>  <Tox-Glu>
ATCTOX

>  <Column 15>


>  <Column 16>
2 

>  <Column 17>
1 

>  <Column 18>
1 

>  <Column 19>


>  <Tox-Gal>
CTOXGAL

>  <Column 20>


>  <Column 21>
8 

>  <Column 22>
1 

>  <Column 23>
1 

>  <Column 24>


>  <Column 25>


>  <PAMPA>
PAMPA

>  <Column 26>
<18

>  <Column 27>


>  <Column 28>


>  <Mouse>
ATMETMOU

>  <Column 29>
201

>  <Column 30>


$$$$
Compound 343
Actelion Java MolfileCreator 2.0

  0  0  0  0  0  0              0 V3000
M  V30 BEGIN CTAB
M  V30 COUNTS 24 24 0 0 0
M  V30 BEGIN ATOM
M  V30 1 O 6.9282 -0.5 0.0 0
M  V30 2 C 6.0621 0.0 0.0 0
M  V30 3 O 6.0621 0.9999 0.0 0
M  V30 4 C 5.1961 -0.5 0.0 0
M  V30 5 O 4.3301 0.0 0.0 0
M  V30 6 C 5.1961 -1.4999 0.0 0
M  V30 7 C 3.4641 -0.5 0.0 0 CFG=2
M  V30 8 C 4.3301 -1.9999 0.0 0 CFG=1
M  V30 9 C 3.4641 -1.4999 0.0 0 CFG=1
M  V30 10 C 2.598 0.0 0.0 0 CFG=2
M  V30 11 N 4.3301 -3.0 0.0 0
M  V30 12 N 2.598 -2.0 0.0 0
M  V30 13 O 2.598 1.0 0.0 0
M  V30 14 C 1.732 -0.5 0.0 0 CFG=2
M  V30 15 N 5.1961 -3.5 0.0 0 CHG=1
M  V30 16 C 2.598 -3.0 0.0 0
M  V30 17 O 1.732 -1.5 0.0 0
M  V30 18 C 0.866 0.0 0.0 0
M  V30 19 N 6.0621 -4.0 0.0 0 CHG=-1
M  V30 20 O 3.4641 -3.4999 0.0 0
M  V30 21 C 1.732 -3.5 0.0 0
M  V30 22 O 0.0 -0.5 0.0 0
M  V30 23 C 0.866 -3.0 0.0 0
M  V30 24 C 1.732 -4.5 0.0 0
M  V30 END ATOM
M  V30 BEGIN BOND
M  V30 1 2 1 2
M  V30 2 1 2 3
M  V30 3 1 2 4
M  V30 4 1 4 5
M  V30 5 2 4 6
M  V30 6 1 7 5 CFG=3
M  V30 7 1 8 6
M  V30 8 1 9 7
M  V30 9 1 10 7
M  V30 10 1 8 11 CFG=3
M  V30 11 1 9 12 CFG=1
M  V30 12 1 10 13 CFG=1
M  V30 13 1 14 10
M  V30 14 2 11 15
M  V30 15 1 12 16
M  V30 16 1 14 17 CFG=3
M  V30 17 1 14 18
M  V30 18 2 15 19
M  V30 19 2 16 20
M  V30 20 1 16 21
M  V30 21 1 18 22
M  V30 22 1 21 23
M  V30 23 1 21 24
M  V30 24 1 8 9
M  V30 END BOND
M  V30 BEGIN COLLECTION
M  V30 MDLV30/STEABS ATOMS=(5 7 8 9 10 14)
M  V30 END COLLECTION
M  V30 END CTAB
M  END
>  <Column 1>
342

>  <Column 2>
PandemicResponseBox - Plate E

>  <Column 3>
F04

>  <Column 4>
MMV1782111

>  <Column 5>
10 mM

>  <Column 6>
ANTIVIRALS

>  <Column 7>


>  <Column 8>
None

>  <Column 9>


>  <Column 10>
CC(C)C(=O)N[C@@H]1[C@H](C=C(O[C@H]1[C@H](O)[C@H](O)CO)C(O)=O)N=[N+]=[N-]

>  <Column 11>
CHEMBL514002

>  <Column 12>


>  <Column 13>
344.3

>  <Column 14>
C13 H20 N4 O7

>  <Tox-Glu>
ATCTOX

>  <Column 15>


>  <Column 16>
101 

>  <Column 17>
102 

>  <Column 18>
101 

>  <Column 19>


>  <Tox-Gal>
CTOXGAL

>  <Column 20>


>  <Column 21>
96 

>  <Column 22>
99 

>  <Column 23>
96 

>  <Column 24>


>  <Column 25>


>  <PAMPA>
PAMPA

>  <Column 26>
undetected

>  <Column 27>
low sensitivity

>  <Column 28>


>  <Mouse>
ATMETMOU

>  <Column 29>


>  <Column 30>
Not determined; Low sensitivity

$$$$
Compound 344
Actelion Java MolfileCreator 2.0

  0  0  0  0  0  0              0 V3000
M  V30 BEGIN CTAB
M  V30 COUNTS 23 25 0 0 0
M  V30 BEGIN ATOM
M  V30 1 F 9.0932 -3.0 0.0 0
M  V30 2 C 7.7942 -2.2499 0.0 0
M  V30 3 C 7.7942 -0.75 0.0 0
M  V30 4 C 6.4951 -2.9999 0.0 0
M  V30 5 C 6.4951 0.0 0.0 0
M  V30 6 C 5.1961 -2.25 0.0 0
M  V30 7 C 5.1961 -0.75 0.0 0
M  V30 8 C 3.8971 0.0 0.0 0
M  V30 9 N 2.598 -0.75 0.0 0
M  V30 10 C 1.299 0.0 0.0 0
M  V30 11 O 1.299 1.5 0.0 0
M  V30 12 C 0.0 -0.75 0.0 0
M  V30 13 C -1.299 0.0 0.0 0
M  V30 14 C 0.0 -2.2499 0.0 0
M  V30 15 O -1.299 1.5 0.0 0
M  V30 16 N -2.598 -0.7499 0.0 0
M  V30 17 O 1.299 -3.0 0.0 0
M  V30 18 C -1.299 -2.9999 0.0 0
M  V30 19 C -2.598 -2.2499 0.0 0
M  V30 20 N -1.299 -4.4999 0.0 0
M  V30 21 C -3.8971 -2.9999 0.0 0
M  V30 22 C -2.598 -5.2499 0.0 0
M  V30 23 C -3.8971 -4.4999 0.0 0
M  V30 END ATOM
M  V30 BEGIN BOND
M  V30 1 1 1 2
M  V30 2 2 2 3
M  V30 3 1 2 4
M  V30 4 1 3 5
M  V30 5 2 4 6
M  V30 6 2 5 7
M  V30 7 1 7 8
M  V30 8 1 8 9
M  V30 9 1 9 10
M  V30 10 2 10 11
M  V30 11 1 10 12
M  V30 12 1 12 13
M  V30 13 2 12 14
M  V30 14 2 13 15
M  V30 15 1 13 16
M  V30 16 1 14 17
M  V30 17 1 14 18
M  V30 18 1 16 19
M  V30 19 1 18 20
M  V30 20 1 19 21
M  V30 21 2 20 22
M  V30 22 2 21 23
M  V30 23 1 6 7
M  V30 24 2 18 19
M  V30 25 1 22 23
M  V30 END BOND
M  V30 END CTAB
M  END
>  <Column 1>
343

>  <Column 2>
PandemicResponseBox - Plate E

>  <Column 3>
G04

>  <Column 4>
MMV1782097

>  <Column 5>
10 mM

>  <Column 6>
ANTIVIRALS

>  <Column 7>


>  <Column 8>
None

>  <Column 9>


>  <Column 10>
FC3=CC=C(CNC(=O)C1=C(O)C2=C([NH][C]1=O)C=CC=N2)C=C3

>  <Column 11>
CHEMBL1917872

>  <Column 12>


>  <Column 13>
313.3

>  <Column 14>
C16 H12 F N3 O3

>  <Tox-Glu>
ATCTOX

>  <Column 15>


>  <Column 16>
98 

>  <Column 17>
94 

>  <Column 18>
62 

>  <Column 19>


>  <Tox-Gal>
CTOXGAL

>  <Column 20>


>  <Column 21>
96 

>  <Column 22>
94 

>  <Column 23>
87 

>  <Column 24>


>  <Column 25>


>  <PAMPA>
PAMPA

>  <Column 26>
196

>  <Column 27>


>  <Column 28>


>  <Mouse>
ATMETMOU

>  <Column 29>
48

>  <Column 30>


$$$$
Compound 345
Actelion Java MolfileCreator 2.0

  0  0  0  0  0  0              0 V3000
M  V30 BEGIN CTAB
M  V30 COUNTS 30 32 0 0 0
M  V30 BEGIN ATOM
M  V30 1 O 6.4951 0.0 0.0 0
M  V30 2 C 5.1961 -0.75 0.0 0
M  V30 3 N 3.8971 0.0 0.0 0
M  V30 4 C 5.1961 -2.25 0.0 0
M  V30 5 N 2.598 -0.75 0.0 0
M  V30 6 C 4.4461 -3.549 0.0 0
M  V30 7 C 5.9461 -3.549 0.0 0
M  V30 8 C 1.299 0.0 0.0 0
M  V30 9 C 3.1471 -4.299 0.0 0
M  V30 10 C 0.0 -0.75 0.0 0
M  V30 11 C 1.848 -3.549 0.0 0
M  V30 12 C 3.1471 -5.799 0.0 0
M  V30 13 C -1.299 0.0 0.0 0
M  V30 14 C 0.0 -2.2499 0.0 0
M  V30 15 C 0.549 -4.299 0.0 0
M  V30 16 C 1.848 -6.549 0.0 0
M  V30 17 C -2.598 -0.7499 0.0 0
M  V30 18 C -1.299 -2.9999 0.0 0
M  V30 19 C 0.549 -5.799 0.0 0
M  V30 20 O -3.8971 0.0 0.0 0
M  V30 21 C -2.598 -2.2499 0.0 0
M  V30 22 C -0.75 -6.549 0.0 0
M  V30 23 C -3.8971 1.5 0.0 0
M  V30 24 O -3.8971 -2.9999 0.0 0
M  V30 25 C 0.0 -7.848 0.0 0
M  V30 26 C -2.049 -7.299 0.0 0
M  V30 27 C -1.5 -5.2499 0.0 0
M  V30 28 C -5.1961 2.25 0.0 0
M  V30 29 C -5.1961 -2.2499 0.0 0
M  V30 30 C -6.4951 -2.9999 0.0 0
M  V30 END ATOM
M  V30 BEGIN BOND
M  V30 1 2 1 2
M  V30 2 1 2 3
M  V30 3 1 2 4
M  V30 4 1 3 5
M  V30 5 1 4 6
M  V30 6 1 4 7
M  V30 7 2 5 8
M  V30 8 1 6 9
M  V30 9 1 8 10
M  V30 10 2 9 11
M  V30 11 1 9 12
M  V30 12 2 10 13
M  V30 13 1 10 14
M  V30 14 1 11 15
M  V30 15 2 12 16
M  V30 16 1 13 17
M  V30 17 2 14 18
M  V30 18 2 15 19
M  V30 19 1 17 20
M  V30 20 2 17 21
M  V30 21 1 19 22
M  V30 22 1 20 23
M  V30 23 1 21 24
M  V30 24 1 22 25
M  V30 25 1 22 26
M  V30 26 1 22 27
M  V30 27 1 23 28
M  V30 28 1 24 29
M  V30 29 1 29 30
M  V30 30 1 6 7
M  V30 31 1 16 19
M  V30 32 1 18 21
M  V30 END BOND
M  V30 END CTAB
M  END
>  <Column 1>
344

>  <Column 2>
PandemicResponseBox - Plate E

>  <Column 3>
H04

>  <Column 4>
MMV1634398

>  <Column 5>
10 mM

>  <Column 6>
ANTIVIRALS

>  <Column 7>


>  <Column 8>
None

>  <Column 9>


>  <Column 10>
O=C(N\N=C\C1=CC(=C(OCC)C=C1)OCC)C3C(C2=CC=C(C(C)(C)C)C=C2)C3

>  <Column 11>
CHEMBL3125915

>  <Column 12>


>  <Column 13>
408.5

>  <Column 14>
C25 H32 N2 O3

>  <Tox-Glu>
ATCTOX

>  <Column 15>


>  <Column 16>
90 

>  <Column 17>
52 

>  <Column 18>
44 

>  <Column 19>


>  <Tox-Gal>
CTOXGAL

>  <Column 20>


>  <Column 21>
76 

>  <Column 22>
12 

>  <Column 23>
9 

>  <Column 24>


>  <Column 25>


>  <PAMPA>
PAMPA

>  <Column 26>
undetected

>  <Column 27>
low sensitivity

>  <Column 28>


>  <Mouse>
ATMETMOU

>  <Column 29>
35

>  <Column 30>
Large variations

$$$$
Compound 346
Actelion Java MolfileCreator 2.0

  0  0  0  0  0  0              0 V3000
M  V30 BEGIN CTAB
M  V30 COUNTS 33 37 0 0 0
M  V30 BEGIN ATOM
M  V30 1 Cl 1.0934 -2.1636 0.0 0
M  V30 2 C 1.8365 -1.4945 0.0 0
M  V30 3 N 2.8147 -1.7024 0.0 0
M  V30 4 C 1.732 -0.5 0.0 0
M  V30 5 C 3.3147 -0.8364 0.0 0
M  V30 6 C 3.3147 -2.5684 0.0 0
M  V30 7 N 2.6455 -0.0932 0.0 0
M  V30 8 C 0.866 0.0 0.0 0
M  V30 9 C 4.3147 -0.8364 0.0 0
M  V30 10 C 4.3147 -2.5684 0.0 0
M  V30 11 O 0.866 1.0 0.0 0
M  V30 12 N 0.0 -0.5 0.0 0
M  V30 13 C 4.8147 -1.7024 0.0 0
M  V30 14 C 4.8147 0.0296 0.0 0
M  V30 15 C 4.8147 -3.4344 0.0 0
M  V30 16 C -0.866 0.0 0.0 0
M  V30 17 C 0.0 -1.4999 0.0 0
M  V30 18 F 3.9487 0.5296 0.0 0
M  V30 19 F 5.3147 0.8956 0.0 0
M  V30 20 F 5.6807 -0.4703 0.0 0
M  V30 21 C 4.8147 -4.4344 0.0 0
M  V30 22 C 5.6807 -3.9344 0.0 0
M  V30 23 C -1.732 -0.4999 0.0 0
M  V30 24 C -0.866 -1.9999 0.0 0
M  V30 25 O -2.598 0.0 0.0 0
M  V30 26 N -1.732 -1.4999 0.0 0
M  V30 27 C -2.598 -1.9999 0.0 0 CFG=1
M  V30 28 C -3.4641 -1.4999 0.0 0
M  V30 29 C -2.598 -2.9999 0.0 0
M  V30 30 C -4.3301 -1.9999 0.0 0
M  V30 31 C -3.4641 -3.4999 0.0 0
M  V30 32 C -4.3301 -2.9999 0.0 0 CFG=1
M  V30 33 O -5.1961 -3.4999 0.0 0
M  V30 END ATOM
M  V30 BEGIN BOND
M  V30 1 1 1 2
M  V30 2 1 2 3
M  V30 3 2 2 4
M  V30 4 1 3 5
M  V30 5 1 3 6
M  V30 6 1 4 7
M  V30 7 1 4 8
M  V30 8 1 5 9
M  V30 9 2 6 10
M  V30 10 2 8 11
M  V30 11 1 8 12
M  V30 12 2 9 13
M  V30 13 1 9 14
M  V30 14 1 10 15
M  V30 15 1 12 16
M  V30 16 1 12 17
M  V30 17 1 14 18
M  V30 18 1 14 19
M  V30 19 1 14 20
M  V30 20 1 15 21
M  V30 21 1 15 22
M  V30 22 1 16 23
M  V30 23 1 17 24
M  V30 24 2 23 25
M  V30 25 1 23 26
M  V30 26 1 27 26 CFG=3
M  V30 27 1 27 28
M  V30 28 1 27 29
M  V30 29 1 28 30
M  V30 30 1 29 31
M  V30 31 1 32 30
M  V30 32 1 32 33 CFG=1
M  V30 33 2 5 7
M  V30 34 1 10 13
M  V30 35 1 21 22
M  V30 36 1 24 26
M  V30 37 1 31 32
M  V30 END BOND
M  V30 BEGIN COLLECTION
M  V30 MDLV30/STEABS ATOMS=(2 27 32)
M  V30 END COLLECTION
M  V30 END CTAB
M  END
>  <Column 1>
345

>  <Column 2>
PandemicResponseBox - Plate E

>  <Column 3>
A05

>  <Column 4>
MMV1634396

>  <Column 5>
10 mM

>  <Column 6>
ANTIVIRALS

>  <Column 7>


>  <Column 8>
None

>  <Column 9>


>  <Column 10>
ClC1=C(N=C3[N]1C=C(C2CC2)C=C3C(F)(F)F)C(=O)N5CC(=O)N([C@H]4CC[C@H](O)CC4)CC5

>  <Column 11>
CHEMBL2170001

>  <Column 12>


>  <Column 13>
484.9

>  <Column 14>
C22 H24 Cl F3 N4 O3

>  <Tox-Glu>
ATCTOX

>  <Column 15>


>  <Column 16>
101 

>  <Column 17>
103 

>  <Column 18>
103 

>  <Column 19>


>  <Tox-Gal>
CTOXGAL

>  <Column 20>


>  <Column 21>
98 

>  <Column 22>
100 

>  <Column 23>
96 

>  <Column 24>


>  <Column 25>


>  <PAMPA>
PAMPA

>  <Column 26>
74

>  <Column 27>


>  <Column 28>


>  <Mouse>
ATMETMOU

>  <Column 29>
-20

>  <Column 30>


$$$$
Compound 347
Actelion Java MolfileCreator 2.0

  0  0  0  0  0  0              0 V3000
M  V30 BEGIN CTAB
M  V30 COUNTS 30 35 0 0 0
M  V30 BEGIN ATOM
M  V30 1 F 3.556 -3.4098 0.0 0
M  V30 2 C 2.6821 -3.8959 0.0 0
M  V30 3 F 3.1683 -4.7698 0.0 0
M  V30 4 F 1.8082 -4.3821 0.0 0
M  V30 5 C 2.1959 -3.0221 0.0 0
M  V30 6 C 2.7096 -2.1641 0.0 0
M  V30 7 C 1.1961 -3.0062 0.0 0
M  V30 8 C 2.2235 -1.2902 0.0 0
M  V30 9 C 0.7099 -2.1323 0.0 0
M  V30 10 N 2.5476 -0.3442 0.0 0
M  V30 11 C 1.2236 -1.2743 0.0 0
M  V30 12 C 1.748 0.2563 0.0 0
M  V30 13 N 0.9297 -0.3185 0.0 0
M  V30 14 C 1.7639 1.2561 0.0 0
M  V30 15 C 0.0 0.0 0.0 0
M  V30 16 C 2.6378 1.7423 0.0 0
M  V30 17 C 0.9059 1.7698 0.0 0
M  V30 18 C 0.0172 1.0847 0.0 0
M  V30 19 C -0.7406 -0.2764 0.0 0
M  V30 20 C -0.5768 -0.749 0.0 0
M  V30 21 C 2.6537 2.7422 0.0 0
M  V30 22 C 0.9218 2.7697 0.0 0
M  V30 23 C -0.9986 1.4291 0.0 0
M  V30 24 C -1.9199 0.0655 0.0 0
M  V30 25 C -1.5588 -0.4611 0.0 0
M  V30 26 C 1.7957 3.2559 0.0 0
M  V30 27 C -1.8677 1.1055 0.0 0
M  V30 28 C -1.461 0.7879 0.0 0
M  V30 29 C -2.4708 -0.7059 0.0 0
M  V30 30 N 1.8116 4.2557 0.0 0
M  V30 END ATOM
M  V30 BEGIN BOND
M  V30 1 1 1 2
M  V30 2 1 2 3
M  V30 3 1 2 4
M  V30 4 1 2 5
M  V30 5 2 5 6
M  V30 6 1 5 7
M  V30 7 1 6 8
M  V30 8 2 7 9
M  V30 9 1 8 10
M  V30 10 2 8 11
M  V30 11 2 10 12
M  V30 12 1 11 13
M  V30 13 1 12 14
M  V30 14 1 13 15
M  V30 15 2 14 16
M  V30 16 1 14 17
M  V30 17 1 15 18
M  V30 18 1 15 19
M  V30 19 1 15 20
M  V30 20 1 16 21
M  V30 21 2 17 22
M  V30 22 1 18 23
M  V30 23 1 19 24
M  V30 24 1 20 25
M  V30 25 2 21 26
M  V30 26 1 23 27
M  V30 27 1 23 28
M  V30 28 1 24 29
M  V30 29 1 26 30
M  V30 30 1 9 11
M  V30 31 1 12 13
M  V30 32 1 22 26
M  V30 33 1 24 27
M  V30 34 1 25 28
M  V30 35 1 25 29
M  V30 END BOND
M  V30 END CTAB
M  END
>  <Column 1>
346

>  <Column 2>
PandemicResponseBox - Plate E

>  <Column 3>
B05

>  <Column 4>
MMV1634385

>  <Column 5>
10 mM

>  <Column 6>
ANTIVIRALS

>  <Column 7>


>  <Column 8>
None

>  <Column 9>


>  <Column 10>
FC(F)(F)C6=CC4=C([N](C12CC3CC(C1)CC(C2)C3)C(=N4)C5=CC=C(N)C=C5)C=C6

>  <Column 11>
CHEMBL1092703

>  <Column 12>


>  <Column 13>
411.5

>  <Column 14>
C24 H24 F3 N3

>  <Tox-Glu>
ATCTOX

>  <Column 15>


>  <Column 16>
17 

>  <Column 17>
1 

>  <Column 18>
0 

>  <Column 19>


>  <Tox-Gal>
CTOXGAL

>  <Column 20>


>  <Column 21>
51 

>  <Column 22>
1 

>  <Column 23>
0 

>  <Column 24>


>  <Column 25>


>  <PAMPA>
PAMPA

>  <Column 26>
219

>  <Column 27>


>  <Column 28>


>  <Mouse>
ATMETMOU

>  <Column 29>
-2

>  <Column 30>
Large variations

$$$$
Compound 348
Actelion Java MolfileCreator 2.0

  0  0  0  0  0  0              0 V3000
M  V30 BEGIN CTAB
M  V30 COUNTS 27 30 0 0 0
M  V30 BEGIN ATOM
M  V30 1 F 2.799 5.9999 0.0 0
M  V30 2 C 1.299 5.9999 0.0 0
M  V30 3 F 1.299 7.5 0.0 0
M  V30 4 F -0.2009 5.9999 0.0 0
M  V30 5 C 1.299 4.5 0.0 0
M  V30 6 C 2.598 3.7499 0.0 0
M  V30 7 C 0.0 3.75 0.0 0
M  V30 8 C 2.598 2.2499 0.0 0
M  V30 9 C 0.0 2.25 0.0 0
M  V30 10 C 1.299 1.4999 0.0 0
M  V30 11 N 1.299 0.0 0.0 0
M  V30 12 C 0.0 -0.75 0.0 0
M  V30 13 N -1.3703 -0.1398 0.0 0
M  V30 14 C -0.1567 -2.2417 0.0 0
M  V30 15 N -2.374 -1.2546 0.0 0
M  V30 16 C 0.8469 -3.3565 0.0 0
M  V30 17 C -1.624 -2.5536 0.0 0
M  V30 18 N 0.3833 -4.783 0.0 0
M  V30 19 N 2.3141 -3.0446 0.0 0
M  V30 20 N -2.0875 -3.9802 0.0 0
M  V30 21 C -1.0838 -5.0949 0.0 0
M  V30 22 C -1.5473 -6.5215 0.0 0
M  V30 23 C -3.0145 -6.8334 0.0 0
M  V30 24 C -0.5436 -7.6362 0.0 0
M  V30 25 C -3.4781 -8.2599 0.0 0
M  V30 26 C -1.0071 -9.0628 0.0 0
M  V30 27 C -2.4744 -9.3747 0.0 0
M  V30 END ATOM
M  V30 BEGIN BOND
M  V30 1 1 1 2
M  V30 2 1 2 3
M  V30 3 1 2 4
M  V30 4 1 2 5
M  V30 5 2 5 6
M  V30 6 1 5 7
M  V30 7 1 6 8
M  V30 8 2 7 9
M  V30 9 2 8 10
M  V30 10 1 10 11
M  V30 11 1 11 12
M  V30 12 2 12 13
M  V30 13 1 12 14
M  V30 14 1 13 15
M  V30 15 2 14 16
M  V30 16 1 14 17
M  V30 17 1 16 18
M  V30 18 1 16 19
M  V30 19 2 17 20
M  V30 20 2 18 21
M  V30 21 1 21 22
M  V30 22 2 22 23
M  V30 23 1 22 24
M  V30 24 1 23 25
M  V30 25 2 24 26
M  V30 26 2 25 27
M  V30 27 1 9 10
M  V30 28 1 15 17
M  V30 29 1 20 21
M  V30 30 1 26 27
M  V30 END BOND
M  V30 END CTAB
M  END
>  <Column 1>
347

>  <Column 2>
PandemicResponseBox - Plate E

>  <Column 3>
C05

>  <Column 4>
MMV1633968

>  <Column 5>
10 mM

>  <Column 6>
ANTIVIRALS

>  <Column 7>


>  <Column 8>
None

>  <Column 9>


>  <Column 10>
FC(F)(F)C4=CC=C(NC1=N[NH]C2=NC(=NC(=C12)N)C3=CC=CC=C3)C=C4

>  <Column 11>
NA

>  <Column 12>
ChemMedChem (2015), 10(10), 1629-1634.

>  <Column 13>
370.3

>  <Column 14>
C18 H13 F3 N6

>  <Tox-Glu>
ATCTOX

>  <Column 15>


>  <Column 16>
97 

>  <Column 17>
48 

>  <Column 18>
10 

>  <Column 19>


>  <Tox-Gal>
CTOXGAL

>  <Column 20>


>  <Column 21>
96 

>  <Column 22>
63 

>  <Column 23>
30 

>  <Column 24>


>  <Column 25>


>  <PAMPA>
PAMPA

>  <Column 26>
61

>  <Column 27>


>  <Column 28>


>  <Mouse>
ATMETMOU

>  <Column 29>
16

>  <Column 30>


$$$$
Compound 349
Actelion Java MolfileCreator 2.0

  0  0  0  0  0  0              0 V3000
M  V30 BEGIN CTAB
M  V30 COUNTS 21 22 0 0 0
M  V30 BEGIN ATOM
M  V30 1 S 2.7026 0.9945 0.0 0
M  V30 2 C 2.598 0.0 0.0 0
M  V30 3 C 3.6807 1.2024 0.0 0
M  V30 4 N 3.5116 -0.4067 0.0 0
M  V30 5 N 1.732 -0.5 0.0 0
M  V30 6 N 4.0874 2.1159 0.0 0 CHG=1 VAL=5
M  V30 7 C 4.1807 0.3364 0.0 0
M  V30 8 C 0.866 0.0 0.0 0
M  V30 9 O 5.082 2.2205 0.0 0
M  V30 10 O 3.4997 2.9249 0.0 0 CHG=-1
M  V30 11 O 0.866 1.0 0.0 0
M  V30 12 C 0.0 -0.5 0.0 0
M  V30 13 C 0.0 -1.4999 0.0 0
M  V30 14 C -0.866 0.0 0.0 0
M  V30 15 O 0.866 -1.9999 0.0 0
M  V30 16 C -0.866 -2.0 0.0 0
M  V30 17 C -1.732 -0.5 0.0 0
M  V30 18 C 0.866 -2.9999 0.0 0
M  V30 19 C -1.732 -1.5 0.0 0
M  V30 20 O 0.0 -3.5 0.0 0
M  V30 21 C 1.732 -3.4999 0.0 0
M  V30 END ATOM
M  V30 BEGIN BOND
M  V30 1 1 1 2
M  V30 2 1 1 3
M  V30 3 2 2 4
M  V30 4 1 2 5
M  V30 5 1 3 6
M  V30 6 2 3 7
M  V30 7 1 5 8
M  V30 8 2 6 9
M  V30 9 1 6 10
M  V30 10 2 8 11
M  V30 11 1 8 12
M  V30 12 2 12 13
M  V30 13 1 12 14
M  V30 14 1 13 15
M  V30 15 1 13 16
M  V30 16 2 14 17
M  V30 17 1 15 18
M  V30 18 2 16 19
M  V30 19 2 18 20
M  V30 20 1 18 21
M  V30 21 1 4 7
M  V30 22 1 17 19
M  V30 END BOND
M  V30 END CTAB
M  END
>  <Column 1>
348

>  <Column 2>
PandemicResponseBox - Plate E

>  <Column 3>
D05

>  <Column 4>
MMV688991

>  <Column 5>
10 mM

>  <Column 6>
ANTIVIRALS

>  <Column 7>


>  <Column 8>
None

>  <Column 9>
Nitazoxanide

>  <Column 10>
S1C(=NC=C1[N](=O)=O)NC(=O)C2=C(OC(=O)C)C=CC=C2

>  <Column 11>
CHEMBL1401

>  <Column 12>


>  <Column 13>
307.3

>  <Column 14>
C12 H9 N3 O5 S

>  <Tox-Glu>
ATCTOX

>  <Column 15>


>  <Column 16>
78 

>  <Column 17>
65 

>  <Column 18>
50 

>  <Column 19>


>  <Tox-Gal>
CTOXGAL

>  <Column 20>


>  <Column 21>
63 

>  <Column 22>
1 

>  <Column 23>
0 

>  <Column 24>


>  <Column 25>


>  <PAMPA>
PAMPA

>  <Column 26>
94

>  <Column 27>


>  <Column 28>


>  <Mouse>
ATMETMOU

>  <Column 29>


>  <Column 30>
Not determined; Low sensitivity

$$$$
Compound 350
Actelion Java MolfileCreator 2.0

  0  0  0  0  0  0              0 V3000
M  V30 BEGIN CTAB
M  V30 COUNTS 36 38 0 0 0
M  V30 BEGIN ATOM
M  V30 1 N 1.732 -0.5 0.0 0
M  V30 2 C 1.732 -1.5 0.0 0
M  V30 3 C 2.598 0.0 0.0 0
M  V30 4 C 0.866 0.0 0.0 0
M  V30 5 C 0.866 -1.9999 0.0 0
M  V30 6 C 2.598 1.0 0.0 0
M  V30 7 C 0.0 -0.5 0.0 0
M  V30 8 N -0.1761 -1.3859 0.0 0
M  V30 9 C 1.732 1.5 0.0 0
M  V30 10 C -0.8057 -0.1104 0.0 0
M  V30 11 C -0.0014 -1.6452 0.0 0
M  V30 12 C -0.8428 -2.0385 0.0 0
M  V30 13 N 0.866 1.0 0.0 0
M  V30 14 C -1.7393 -0.591 0.0 0
M  V30 15 C -0.9517 -1.9495 0.0 0
M  V30 16 C -1.8572 -1.2906 0.0 0
M  V30 17 C 0.0 1.5 0.0 0
M  V30 18 C -1.8117 -1.6173 0.0 0
M  V30 19 C -1.9151 -0.4435 0.0 0
M  V30 20 C -0.866 1.0 0.0 0
M  V30 21 C -2.598 -1.9999 0.0 0
M  V30 22 N -0.9588 0.2321 0.0 0
M  V30 23 N -2.598 -2.9999 0.0 0
M  V30 24 C -3.4641 -3.4999 0.0 0
M  V30 25 C -1.732 -3.4999 0.0 0
M  V30 26 C -4.3301 -2.9999 0.0 0
M  V30 27 C -0.866 -2.9999 0.0 0
M  V30 28 N -4.3301 -1.9999 0.0 0
M  V30 29 C -0.7744 -1.972 0.0 0
M  V30 30 C -5.1961 -1.4999 0.0 0
M  V30 31 N -1.5947 -1.3981 0.0 0
M  V30 32 C -5.1961 -0.4999 0.0 0
M  V30 33 C -1.7121 -0.4272 0.0 0
M  V30 34 C -4.3301 0.0 0.0 0
M  V30 35 C -2.598 0.0 0.0 0
M  V30 36 N -3.4641 -0.4999 0.0 0
M  V30 END ATOM
M  V30 BEGIN BOND
M  V30 1 1 1 2
M  V30 2 1 1 3
M  V30 3 1 1 4
M  V30 4 1 2 5
M  V30 5 1 3 6
M  V30 6 1 4 7
M  V30 7 1 5 8
M  V30 8 1 6 9
M  V30 9 2 7 10
M  V30 10 1 7 11
M  V30 11 1 8 12
M  V30 12 1 9 13
M  V30 13 1 10 14
M  V30 14 2 11 15
M  V30 15 1 12 16
M  V30 16 1 13 17
M  V30 17 2 14 18
M  V30 18 1 16 19
M  V30 19 1 17 20
M  V30 20 1 18 21
M  V30 21 1 19 22
M  V30 22 1 21 23
M  V30 23 1 23 24
M  V30 24 1 23 25
M  V30 25 1 24 26
M  V30 26 1 25 27
M  V30 27 1 26 28
M  V30 28 1 27 29
M  V30 29 1 28 30
M  V30 30 1 29 31
M  V30 31 1 30 32
M  V30 32 1 31 33
M  V30 33 1 32 34
M  V30 34 1 33 35
M  V30 35 1 34 36
M  V30 36 1 15 18
M  V30 37 1 20 22
M  V30 38 1 35 36
M  V30 END BOND
M  V30 END CTAB
M  END
>  <Column 1>
349

>  <Column 2>
PandemicResponseBox - Plate E

>  <Column 3>
E05

>  <Column 4>
MMV1580502

>  <Column 5>
10 mM

>  <Column 6>
ANTIVIRALS

>  <Column 7>


>  <Column 8>
None

>  <Column 9>
Plerixafor

>  <Column 10>
N1(CCNCCCNCCNCCC1)CC3=CC=C(CN2CCNCCCNCCNCCC2)C=C3

>  <Column 11>
CHEMBL18442

>  <Column 12>
Antimicrob. Agents Chemother. (2009) 53:2940-2948

>  <Column 13>
502.8

>  <Column 14>
C28 H54 N8

>  <Tox-Glu>
ATCTOX

>  <Column 15>


>  <Column 16>
97 

>  <Column 17>
99 

>  <Column 18>
97 

>  <Column 19>


>  <Tox-Gal>
CTOXGAL

>  <Column 20>


>  <Column 21>
102 

>  <Column 22>
102 

>  <Column 23>
101 

>  <Column 24>


>  <Column 25>


>  <PAMPA>
PAMPA

>  <Column 26>
561

>  <Column 27>


>  <Column 28>


>  <Mouse>
ATMETMOU

>  <Column 29>


>  <Column 30>
Not determined; Low sensitivity

$$$$
Compound 351
Actelion Java MolfileCreator 2.0

  0  0  0  0  0  0              0 V3000
M  V30 BEGIN CTAB
M  V30 COUNTS 13 15 0 0 0
M  V30 BEGIN ATOM
M  V30 1 N 1.6834 0.3386 0.0 0
M  V30 2 C 0.9297 -0.3185 0.0 0 CFG=2
M  V30 3 C 0.0 0.0 0.0 0
M  V30 4 C 1.1221 -1.2998 0.0 0
M  V30 5 C 0.0172 1.0847 0.0 0
M  V30 6 C -0.7406 -0.2764 0.0 0
M  V30 7 C -0.5768 -0.749 0.0 0
M  V30 8 C -0.9986 1.4291 0.0 0
M  V30 9 C -1.9199 0.0655 0.0 0
M  V30 10 C -1.5588 -0.4611 0.0 0
M  V30 11 C -1.8677 1.1055 0.0 0
M  V30 12 C -1.461 0.7879 0.0 0
M  V30 13 C -2.4708 -0.7059 0.0 0
M  V30 END ATOM
M  V30 BEGIN BOND
M  V30 1 1 2 1 CFG=1
M  V30 2 1 2 3
M  V30 3 1 2 4
M  V30 4 1 3 5
M  V30 5 1 3 6
M  V30 6 1 3 7
M  V30 7 1 5 8
M  V30 8 1 6 9
M  V30 9 1 7 10
M  V30 10 1 8 11
M  V30 11 1 8 12
M  V30 12 1 9 13
M  V30 13 1 9 11
M  V30 14 1 10 12
M  V30 15 1 10 13
M  V30 END BOND
M  V30 BEGIN COLLECTION
M  V30 MDLV30/STERAC1 ATOMS=(1 2)
M  V30 END COLLECTION
M  V30 END CTAB
M  END
>  <Column 1>
350

>  <Column 2>
PandemicResponseBox - Plate E

>  <Column 3>
F05

>  <Column 4>
MMV637855

>  <Column 5>
10 mM

>  <Column 6>
ANTIVIRALS

>  <Column 7>
1

>  <Column 8>
Hydrochloric acid

>  <Column 9>
Rimantadine

>  <Column 10>
NC(C12CC3CC(C1)CC(C2)C3)C

>  <Column 11>
CHEMBL959

>  <Column 12>


>  <Column 13>
215.8

>  <Column 14>
C12H21N

>  <Tox-Glu>
ATCTOX

>  <Column 15>


>  <Column 16>
99 

>  <Column 17>
93 

>  <Column 18>
68 

>  <Column 19>


>  <Tox-Gal>
CTOXGAL

>  <Column 20>


>  <Column 21>
96 

>  <Column 22>
97 

>  <Column 23>
88 

>  <Column 24>


>  <Column 25>


>  <PAMPA>
PAMPA

>  <Column 26>
327

>  <Column 27>


>  <Column 28>


>  <Mouse>
ATMETMOU

>  <Column 29>
-11

>  <Column 30>


$$$$
Compound 352
Actelion Java MolfileCreator 2.0

  0  0  0  0  0  0              0 V3000
M  V30 BEGIN CTAB
M  V30 COUNTS 27 29 0 0 0
M  V30 BEGIN ATOM
M  V30 1 F 9.6099 2.7264 0.0 0
M  V30 2 C 9.5054 1.7318 0.0 0
M  V30 3 F 10.4999 1.6273 0.0 0
M  V30 4 F 9.4008 0.7373 0.0 0
M  V30 5 C 8.5108 1.8364 0.0 0
M  V30 6 O 8.0108 2.7024 0.0 0
M  V30 7 N 7.8417 1.0932 0.0 0
M  V30 8 N 7.0327 2.4945 0.0 0
M  V30 9 C 6.9282 1.4999 0.0 0
M  V30 10 C 6.0621 0.9999 0.0 0
M  V30 11 C 5.1961 1.4999 0.0 0
M  V30 12 C 6.0621 0.0 0.0 0
M  V30 13 C 4.3301 0.9999 0.0 0
M  V30 14 C 5.1961 -0.5 0.0 0
M  V30 15 C 4.3301 0.0 0.0 0
M  V30 16 C 3.4641 1.5 0.0 0
M  V30 17 C 5.1961 -1.5 0.0 0
M  V30 18 O 3.4641 -0.5 0.0 0
M  V30 19 C 2.598 0.0 0.0 0
M  V30 20 C 1.732 -0.5 0.0 0
M  V30 21 C 0.866 0.0 0.0 0
M  V30 22 C 0.0 -0.5 0.0 0
M  V30 23 O -0.9135 -0.0932 0.0 0
M  V30 24 C -0.1045 -1.4945 0.0 0
M  V30 25 N -1.5826 -0.8364 0.0 0
M  V30 26 C -1.0826 -1.7024 0.0 0
M  V30 27 C -1.4894 -2.6159 0.0 0
M  V30 END ATOM
M  V30 BEGIN BOND
M  V30 1 1 1 2
M  V30 2 1 2 3
M  V30 3 1 2 4
M  V30 4 1 2 5
M  V30 5 1 5 6
M  V30 6 2 5 7
M  V30 7 1 6 8
M  V30 8 1 7 9
M  V30 9 1 9 10
M  V30 10 2 10 11
M  V30 11 1 10 12
M  V30 12 1 11 13
M  V30 13 2 12 14
M  V30 14 2 13 15
M  V30 15 1 13 16
M  V30 16 1 14 17
M  V30 17 1 15 18
M  V30 18 1 18 19
M  V30 19 1 19 20
M  V30 20 1 20 21
M  V30 21 1 21 22
M  V30 22 1 22 23
M  V30 23 2 22 24
M  V30 24 1 23 25
M  V30 25 1 24 26
M  V30 26 1 26 27
M  V30 27 2 8 9
M  V30 28 1 14 15
M  V30 29 2 25 26
M  V30 END BOND
M  V30 END CTAB
M  END
>  <Column 1>
351

>  <Column 2>
PandemicResponseBox - Plate E

>  <Column 3>
G05

>  <Column 4>
MMV690467

>  <Column 5>
10 mM

>  <Column 6>
ANTIVIRALS

>  <Column 7>


>  <Column 8>
None

>  <Column 9>
Pleconaril

>  <Column 10>
FC(F)(F)C1=NC(=NO1)C3=CC(=C(OCCCC2=CC(=NO2)C)C(=C3)C)C

>  <Column 11>
CHEMBL29609

>  <Column 12>


>  <Column 13>
381.3

>  <Column 14>
C18 H18 F3 N3 O3

>  <Tox-Glu>
ATCTOX

>  <Column 15>


>  <Column 16>
102 

>  <Column 17>
102 

>  <Column 18>
93 

>  <Column 19>


>  <Tox-Gal>
CTOXGAL

>  <Column 20>


>  <Column 21>
95 

>  <Column 22>
81 

>  <Column 23>
66 

>  <Column 24>


>  <Column 25>


>  <PAMPA>
PAMPA

>  <Column 26>
undetected

>  <Column 27>
low sensitivity

>  <Column 28>


>  <Mouse>
ATMETMOU

>  <Column 29>


>  <Column 30>
Not determined; Low sensitivity

$$$$
Compound 353
Actelion Java MolfileCreator 2.0

  0  0  0  0  0  0              0 V3000
M  V30 BEGIN CTAB
M  V30 COUNTS 31 33 0 0 0
M  V30 BEGIN ATOM
M  V30 1 F 8.6678 1.6064 0.0 0
M  V30 2 C 9.5813 1.1997 0.0 0
M  V30 3 F 9.988 2.1132 0.0 0
M  V30 4 F 10.4948 0.793 0.0 0
M  V30 5 C 9.1746 0.2861 0.0 0
M  V30 6 C 8.18 0.1816 0.0 0
M  V30 7 C 9.7623 -0.5228 0.0 0
M  V30 8 C 7.7733 -0.7318 0.0 0
M  V30 9 C 9.3556 -1.4363 0.0 0
M  V30 10 C 6.7788 -0.8364 0.0 0
M  V30 11 C 8.3611 -1.5408 0.0 0
M  V30 12 C 9.9434 -2.2453 0.0 0
M  V30 13 N 6.1096 -0.0932 0.0 0
M  V30 14 N 6.2788 -1.7024 0.0 0
M  V30 15 F 10.7524 -1.6575 0.0 0
M  V30 16 F 10.5312 -3.0544 0.0 0
M  V30 17 F 9.1344 -2.8331 0.0 0
M  V30 18 N 5.1961 -0.5 0.0 0
M  V30 19 C 5.3006 -1.4945 0.0 0
M  V30 20 C 4.3301 0.0 0.0 0
M  V30 21 C 3.4641 -0.5 0.0 0
M  V30 22 C 3.4641 -1.5 0.0 0
M  V30 23 O 4.3301 -2.0 0.0 0
M  V30 24 N 2.598 -1.9999 0.0 0
M  V30 25 N 2.598 -2.9999 0.0 0
M  V30 26 C 1.732 -3.5 0.0 0
M  V30 27 N 1.732 -4.5 0.0 0
M  V30 28 C 0.866 -3.0 0.0 0
M  V30 29 C 0.866 -5.0 0.0 0
M  V30 30 C 0.0 -3.5 0.0 0
M  V30 31 C 0.0 -4.5 0.0 0
M  V30 END ATOM
M  V30 BEGIN BOND
M  V30 1 1 1 2
M  V30 2 1 2 3
M  V30 3 1 2 4
M  V30 4 1 2 5
M  V30 5 2 5 6
M  V30 6 1 5 7
M  V30 7 1 6 8
M  V30 8 2 7 9
M  V30 9 1 8 10
M  V30 10 2 8 11
M  V30 11 1 9 12
M  V30 12 2 10 13
M  V30 13 1 10 14
M  V30 14 1 12 15
M  V30 15 1 12 16
M  V30 16 1 12 17
M  V30 17 1 13 18
M  V30 18 2 14 19
M  V30 19 1 18 20
M  V30 20 2 20 21
M  V30 21 1 21 22
M  V30 22 2 22 23
M  V30 23 1 22 24
M  V30 24 1 24 25
M  V30 25 1 25 26
M  V30 26 2 26 27
M  V30 27 1 26 28
M  V30 28 1 27 29
M  V30 29 2 28 30
M  V30 30 2 29 31
M  V30 31 1 9 11
M  V30 32 1 18 19
M  V30 33 1 30 31
M  V30 END BOND
M  V30 END CTAB
M  END
>  <Column 1>
352

>  <Column 2>
PandemicResponseBox - Plate E

>  <Column 3>
H05

>  <Column 4>
MMV1580493

>  <Column 5>
10 mM

>  <Column 6>
ANTIVIRALS

>  <Column 7>


>  <Column 8>
None

>  <Column 9>
Verdinexor

>  <Column 10>
FC(F)(F)C1=CC(=CC(=C1)C(F)(F)F)C3=N[N](\C=C/C(=O)NNC2=NC=CC=C2)C=N3

>  <Column 11>
CHEMBL3545187

>  <Column 12>
�PLoS One�(2016),�11(11),�e0167221/1-e0167221/14

>  <Column 13>
442.3

>  <Column 14>
C18 H12 F6 N6 O

>  <Tox-Glu>
ATCTOX

>  <Column 15>


>  <Column 16>
66 

>  <Column 17>
21 

>  <Column 18>
1 

>  <Column 19>


>  <Tox-Gal>
CTOXGAL

>  <Column 20>


>  <Column 21>
89 

>  <Column 22>
33 

>  <Column 23>
1 

>  <Column 24>


>  <Column 25>


>  <PAMPA>
PAMPA

>  <Column 26>
172

>  <Column 27>


>  <Column 28>


>  <Mouse>
ATMETMOU

>  <Column 29>
3

>  <Column 30>


$$$$
Compound 354
Actelion Java MolfileCreator 2.0

  0  0  0  0  0  0              0 V3000
M  V30 BEGIN CTAB
M  V30 COUNTS 32 37 0 0 0
M  V30 BEGIN ATOM
M  V30 1 N 5.1961 -3.5 0.0 0
M  V30 2 C 6.0621 -3.0 0.0 0
M  V30 3 C 4.3301 -3.0 0.0 0
M  V30 4 N 7.0132 -3.309 0.0 0
M  V30 5 C 6.0621 -2.0 0.0 0
M  V30 6 C 4.3301 -1.9999 0.0 0
M  V30 7 C 7.601 -2.5 0.0 0
M  V30 8 C 7.0132 -1.6909 0.0 0
M  V30 9 C 5.1961 -1.4999 0.0 0
M  V30 10 C 3.4641 -1.4999 0.0 0
M  V30 11 C 7.3222 -0.7399 0.0 0
M  V30 12 C 3.4641 -0.5 0.0 0
M  V30 13 C 2.598 -1.9999 0.0 0
M  V30 14 C 6.6531 0.0032 0.0 0
M  V30 15 C 8.3003 -0.532 0.0 0
M  V30 16 C 2.598 0.0 0.0 0
M  V30 17 C 1.732 -1.5 0.0 0
M  V30 18 C 6.9621 0.9542 0.0 0
M  V30 19 C 8.6094 0.419 0.0 0
M  V30 20 C 1.732 -0.5 0.0 0
M  V30 21 C 7.9402 1.1621 0.0 0
M  V30 22 C 6.4621 1.8203 0.0 0
M  V30 23 C 0.866 0.0 0.0 0
M  V30 24 N 8.0448 2.1567 0.0 0
M  V30 25 C 7.1312 2.5634 0.0 0
M  V30 26 N 0.0 -0.5 0.0 0
M  V30 27 C -0.866 0.0 0.0 0
M  V30 28 C 0.0 -1.4999 0.0 0
M  V30 29 C -1.732 -0.4999 0.0 0
M  V30 30 C -0.866 -1.9999 0.0 0
M  V30 31 N -1.732 -1.4999 0.0 0
M  V30 32 C -2.598 -1.9999 0.0 0
M  V30 END ATOM
M  V30 BEGIN BOND
M  V30 1 2 1 2
M  V30 2 1 1 3
M  V30 3 1 2 4
M  V30 4 1 2 5
M  V30 5 2 3 6
M  V30 6 1 4 7
M  V30 7 1 5 8
M  V30 8 2 5 9
M  V30 9 1 6 10
M  V30 10 1 8 11
M  V30 11 2 10 12
M  V30 12 1 10 13
M  V30 13 2 11 14
M  V30 14 1 11 15
M  V30 15 1 12 16
M  V30 16 2 13 17
M  V30 17 1 14 18
M  V30 18 2 15 19
M  V30 19 2 16 20
M  V30 20 2 18 21
M  V30 21 1 18 22
M  V30 22 1 20 23
M  V30 23 1 21 24
M  V30 24 2 22 25
M  V30 25 1 23 26
M  V30 26 1 26 27
M  V30 27 1 26 28
M  V30 28 1 27 29
M  V30 29 1 28 30
M  V30 30 1 29 31
M  V30 31 1 31 32
M  V30 32 1 6 9
M  V30 33 2 7 8
M  V30 34 1 17 20
M  V30 35 1 19 21
M  V30 36 1 24 25
M  V30 37 1 30 31
M  V30 END BOND
M  V30 END CTAB
M  END
>  <Column 1>
353

>  <Column 2>
PandemicResponseBox - Plate E

>  <Column 3>
A06

>  <Column 4>
MMV1580482

>  <Column 5>
10 mM

>  <Column 6>
ANTIVIRALS

>  <Column 7>


>  <Column 8>
None

>  <Column 9>
URMC-099-C

>  <Column 10>
N2=C1[NH]C=C(C1=CC(=C2)C4=CC=C(CN3CCN(C)CC3)C=C4)C6=CC5=C([NH]C=C5)C=C6

>  <Column 11>
CHEMBL2436978

>  <Column 12>
WO�2014085795�A1�20140605

>  <Column 13>
421.5

>  <Column 14>
C27 H27 N5

>  <Tox-Glu>
ATCTOX

>  <Column 15>


>  <Column 16>
2 

>  <Column 17>
1 

>  <Column 18>
0 

>  <Column 19>


>  <Tox-Gal>
CTOXGAL

>  <Column 20>


>  <Column 21>
94 

>  <Column 22>
1 

>  <Column 23>
0 

>  <Column 24>


>  <Column 25>


>  <PAMPA>
PAMPA

>  <Column 26>
275

>  <Column 27>


>  <Column 28>


>  <Mouse>
ATMETMOU

>  <Column 29>
175

>  <Column 30>


$$$$
Compound 355
Actelion Java MolfileCreator 2.0

  0  0  0  0  0  0              0 V3000
M  V30 BEGIN CTAB
M  V30 COUNTS 23 24 0 0 0
M  V30 BEGIN ATOM
M  V30 1 Cl 10.3923 2.25 0.0 0
M  V30 2 C 9.0933 1.5 0.0 0
M  V30 3 C 7.7942 2.25 0.0 0
M  V30 4 C 9.0933 0.0 0.0 0
M  V30 5 C 6.4952 1.5 0.0 0
M  V30 6 C 7.7942 -0.75 0.0 0
M  V30 7 C 6.4952 0.0 0.0 0
M  V30 8 N 5.1961 -0.75 0.0 0
M  V30 9 C 3.8971 0.0 0.0 0
M  V30 10 O 3.8971 1.5 0.0 0
M  V30 11 C 2.598 -0.75 0.0 0
M  V30 12 O 2.598 -2.25 0.0 0
M  V30 13 N 1.299 0.0 0.0 0
M  V30 14 C 0.0 -0.75 0.0 0
M  V30 15 C -1.299 0.0 0.0 0
M  V30 16 C 0.0 -2.25 0.0 0
M  V30 17 C -2.598 -0.75 0.0 0
M  V30 18 C -1.299 -3.0 0.0 0
M  V30 19 N -2.598 -2.25 0.0 0
M  V30 20 C -3.348 0.549 0.0 0
M  V30 21 C -4.098 -0.75 0.0 0
M  V30 22 C -2.049 -4.299 0.0 0
M  V30 23 C -0.549 -4.299 0.0 0
M  V30 END ATOM
M  V30 BEGIN BOND
M  V30 1 1 1 2
M  V30 2 2 2 3
M  V30 3 1 2 4
M  V30 4 1 3 5
M  V30 5 2 4 6
M  V30 6 2 5 7
M  V30 7 1 7 8
M  V30 8 1 8 9
M  V30 9 2 9 10
M  V30 10 1 9 11
M  V30 11 2 11 12
M  V30 12 1 11 13
M  V30 13 1 13 14
M  V30 14 1 14 15
M  V30 15 1 14 16
M  V30 16 1 15 17
M  V30 17 1 16 18
M  V30 18 1 17 19
M  V30 19 1 17 20
M  V30 20 1 17 21
M  V30 21 1 18 22
M  V30 22 1 18 23
M  V30 23 1 6 7
M  V30 24 1 18 19
M  V30 END BOND
M  V30 END CTAB
M  END
>  <Column 1>
354

>  <Column 2>
PandemicResponseBox - Plate E

>  <Column 3>
B06

>  <Column 4>
MMV1580501

>  <Column 5>
10 mM

>  <Column 6>
ANTIVIRALS

>  <Column 7>


>  <Column 8>
None

>  <Column 9>
NBD 556

>  <Column 10>
ClC2=CC=C(NC(=O)C(=O)NC1CC(NC(C1)(C)C)(C)C)C=C2

>  <Column 11>
CHEMBL254781

>  <Column 12>


>  <Column 13>
337.8

>  <Column 14>
C17 H24 Cl N3 O2

>  <Tox-Glu>
ATCTOX

>  <Column 15>


>  <Column 16>
101 

>  <Column 17>
91 

>  <Column 18>
38 

>  <Column 19>


>  <Tox-Gal>
CTOXGAL

>  <Column 20>


>  <Column 21>
98 

>  <Column 22>
96 

>  <Column 23>
64 

>  <Column 24>


>  <Column 25>


>  <PAMPA>
PAMPA

>  <Column 26>
361

>  <Column 27>


>  <Column 28>


>  <Mouse>
ATMETMOU

>  <Column 29>
-7

>  <Column 30>
Large variations

$$$$
Compound 356
Actelion Java MolfileCreator 2.0

  0  0  0  0  0  0              0 V3000
M  V30 BEGIN CTAB
M  V30 COUNTS 13 13 0 0 0
M  V30 BEGIN ATOM
M  V30 1 S 6.4951 0.0 0.0 0
M  V30 2 C 5.1961 -0.75 0.0 0
M  V30 3 N 3.8971 0.0 0.0 0
M  V30 4 N 5.1961 -2.25 0.0 0
M  V30 5 N 2.598 -0.75 0.0 0
M  V30 6 C 1.299 0.0 0.0 0
M  V30 7 C 0.0 -0.75 0.0 0
M  V30 8 N -1.299 0.0 0.0 0
M  V30 9 C 0.0 -2.2499 0.0 0
M  V30 10 C -2.598 -0.7499 0.0 0
M  V30 11 N 1.299 -3.0 0.0 0
M  V30 12 C -1.299 -2.9999 0.0 0
M  V30 13 C -2.598 -2.2499 0.0 0
M  V30 END ATOM
M  V30 BEGIN BOND
M  V30 1 2 1 2
M  V30 2 1 2 3
M  V30 3 1 2 4
M  V30 4 1 3 5
M  V30 5 2 5 6
M  V30 6 1 6 7
M  V30 7 2 7 8
M  V30 8 1 7 9
M  V30 9 1 8 10
M  V30 10 1 9 11
M  V30 11 2 9 12
M  V30 12 2 10 13
M  V30 13 1 12 13
M  V30 END BOND
M  V30 END CTAB
M  END
>  <Column 1>
355

>  <Column 2>
PandemicResponseBox - Plate E

>  <Column 3>
C06

>  <Column 4>
MMV1580496

>  <Column 5>
10 mM

>  <Column 6>
ANTIVIRALS

>  <Column 7>


>  <Column 8>
None

>  <Column 9>
Triapine

>  <Column 10>
S=C(N\N=C\C1=NC=CC=C1N)N

>  <Column 11>
CHEMBL231616

>  <Column 12>
WO 2002085358

>  <Column 13>
195.2

>  <Column 14>
C7 H9 N5 S

>  <Tox-Glu>
ATCTOX

>  <Column 15>


>  <Column 16>
84 

>  <Column 17>
75 

>  <Column 18>
69 

>  <Column 19>


>  <Tox-Gal>
CTOXGAL

>  <Column 20>


>  <Column 21>
75 

>  <Column 22>
60 

>  <Column 23>
58 

>  <Column 24>


>  <Column 25>


>  <PAMPA>
PAMPA

>  <Column 26>
<18

>  <Column 27>


>  <Column 28>


>  <Mouse>
ATMETMOU

>  <Column 29>


>  <Column 30>
Not determined; Large variations

$$$$
Compound 357
Actelion Java MolfileCreator 2.0

  0  0  0  0  0  0              0 V3000
M  V30 BEGIN CTAB
M  V30 COUNTS 22 24 0 0 0
M  V30 BEGIN ATOM
M  V30 1 N 2.598 1.0 0.0 0
M  V30 2 C 2.598 0.0 0.0 0
M  V30 3 C 3.4641 1.4999 0.0 0
M  V30 4 N 3.4641 -0.5 0.0 0
M  V30 5 N 1.732 -0.5 0.0 0
M  V30 6 C 4.3301 1.0 0.0 0
M  V30 7 C 4.3301 0.0 0.0 0
M  V30 8 C 0.866 0.0 0.0 0
M  V30 9 C 0.0 -0.5 0.0 0
M  V30 10 C -0.866 0.0 0.0 0
M  V30 11 C 0.0 -1.4999 0.0 0
M  V30 12 C -1.732 -0.4999 0.0 0
M  V30 13 C -0.866 -1.9999 0.0 0
M  V30 14 C -1.732 -1.4999 0.0 0
M  V30 15 C -2.598 -1.9999 0.0 0
M  V30 16 N -3.4641 -1.4999 0.0 0
M  V30 17 C -4.3301 -1.9999 0.0 0
M  V30 18 N -5.1961 -1.4999 0.0 0
M  V30 19 N -4.3301 -2.9999 0.0 0
M  V30 20 C -6.0621 -1.9999 0.0 0
M  V30 21 C -5.1961 -3.4999 0.0 0
M  V30 22 C -6.0621 -2.9999 0.0 0
M  V30 END ATOM
M  V30 BEGIN BOND
M  V30 1 2 1 2
M  V30 2 1 1 3
M  V30 3 1 2 4
M  V30 4 1 2 5
M  V30 5 2 3 6
M  V30 6 2 4 7
M  V30 7 1 5 8
M  V30 8 1 8 9
M  V30 9 2 9 10
M  V30 10 1 9 11
M  V30 11 1 10 12
M  V30 12 2 11 13
M  V30 13 2 12 14
M  V30 14 1 14 15
M  V30 15 1 15 16
M  V30 16 1 16 17
M  V30 17 2 17 18
M  V30 18 1 17 19
M  V30 19 1 18 20
M  V30 20 2 19 21
M  V30 21 2 20 22
M  V30 22 1 6 7
M  V30 23 1 13 14
M  V30 24 1 21 22
M  V30 END BOND
M  V30 END CTAB
M  END
>  <Column 1>
356

>  <Column 2>
PandemicResponseBox - Plate E

>  <Column 3>
D06

>  <Column 4>
MMV1580490

>  <Column 5>
10 mM

>  <Column 6>
ANTIVIRALS

>  <Column 7>


>  <Column 8>
None

>  <Column 9>
MSX 122

>  <Column 10>
N1=C(N=CC=C1)NCC3=CC=C(CNC2=NC=CC=N2)C=C3

>  <Column 11>
CHEMBL3545330

>  <Column 12>
Bioorganic & Medicinal Chemistry Letters (2015), 25(21), 4950-4955.

>  <Column 13>
292.3

>  <Column 14>
C16 H16 N6

>  <Tox-Glu>
ATCTOX

>  <Column 15>


>  <Column 16>
104 

>  <Column 17>
104 

>  <Column 18>
102 

>  <Column 19>


>  <Tox-Gal>
CTOXGAL

>  <Column 20>


>  <Column 21>
100 

>  <Column 22>
99 

>  <Column 23>
99 

>  <Column 24>


>  <Column 25>


>  <PAMPA>
PAMPA

>  <Column 26>
174

>  <Column 27>


>  <Column 28>


>  <Mouse>
ATMETMOU

>  <Column 29>
19

>  <Column 30>


$$$$
Compound 358
Actelion Java MolfileCreator 2.0

  0  0  0  0  0  0              0 V3000
M  V30 BEGIN CTAB
M  V30 COUNTS 19 21 0 0 0
M  V30 BEGIN ATOM
M  V30 1 Cl 1.732 -3.5 0.0 0
M  V30 2 C 0.866 -3.0 0.0 0
M  V30 3 C 0.866 -1.9999 0.0 0
M  V30 4 C 0.0 -3.4999 0.0 0
M  V30 5 C 0.0 -1.4999 0.0 0
M  V30 6 C -0.866 -2.9999 0.0 0
M  V30 7 C -0.866 -1.9999 0.0 0
M  V30 8 C 0.0 -0.5 0.0 0 CFG=1
M  V30 9 N -1.732 -1.4999 0.0 0
M  V30 10 N -0.866 0.0 0.0 0
M  V30 11 C 0.0 0.5 0.0 0
M  V30 12 C 0.866 0.0 0.0 0
M  V30 13 C -1.732 -0.4999 0.0 0
M  V30 14 C -0.866 0.9999 0.0 0
M  V30 15 C 0.4999 1.366 0.0 0
M  V30 16 C -0.5 1.366 0.0 0
M  V30 17 C 1.732 -0.5 0.0 0
M  V30 18 O -2.598 0.0 0.0 0
M  V30 19 C 2.598 0.0 0.0 0
M  V30 END ATOM
M  V30 BEGIN BOND
M  V30 1 1 1 2
M  V30 2 2 2 3
M  V30 3 1 2 4
M  V30 4 1 3 5
M  V30 5 2 4 6
M  V30 6 2 5 7
M  V30 7 1 8 5
M  V30 8 1 7 9
M  V30 9 1 8 10
M  V30 10 1 8 11 CFG=1
M  V30 11 1 8 12
M  V30 12 1 9 13
M  V30 13 1 10 14
M  V30 14 1 11 15
M  V30 15 1 11 16
M  V30 16 1 12 17
M  V30 17 2 13 18
M  V30 18 1 17 19
M  V30 19 1 6 7
M  V30 20 1 10 13
M  V30 21 1 15 16
M  V30 END BOND
M  V30 BEGIN COLLECTION
M  V30 MDLV30/STERAC1 ATOMS=(1 8)
M  V30 END COLLECTION
M  V30 END CTAB
M  END
>  <Column 1>
357

>  <Column 2>
PandemicResponseBox - Plate E

>  <Column 3>
E06

>  <Column 4>
MMV1782113

>  <Column 5>
10 mM

>  <Column 6>
ANTIVIRALS

>  <Column 7>


>  <Column 8>
None

>  <Column 9>


>  <Column 10>
ClC3=CC1=C(NC(=O)N(C1(C2CC2)CCC)C)C=C3

>  <Column 11>
NA

>  <Column 12>
�EP�530994�A1, WO 9304047 A1

>  <Column 13>
278.8

>  <Column 14>
C15 H19 Cl N2 O

>  <Tox-Glu>
ATCTOX

>  <Column 15>


>  <Column 16>
105 

>  <Column 17>
102 

>  <Column 18>
3 

>  <Column 19>


>  <Tox-Gal>
CTOXGAL

>  <Column 20>


>  <Column 21>
103 

>  <Column 22>
102 

>  <Column 23>
0 

>  <Column 24>


>  <Column 25>


>  <PAMPA>
PAMPA

>  <Column 26>
348

>  <Column 27>


>  <Column 28>


>  <Mouse>
ATMETMOU

>  <Column 29>
387

>  <Column 30>


$$$$
Compound 359
Actelion Java MolfileCreator 2.0

  0  0  0  0  0  0              0 V3000
M  V30 BEGIN CTAB
M  V30 COUNTS 33 36 0 0 0
M  V30 BEGIN ATOM
M  V30 1 F 5.5621 0.866 0.0 0
M  V30 2 C 6.0621 0.0 0.0 0
M  V30 3 F 6.9282 0.4999 0.0 0
M  V30 4 F 6.5621 -0.866 0.0 0
M  V30 5 C 5.1961 -0.5 0.0 0
M  V30 6 C 4.3301 0.0 0.0 0
M  V30 7 C 5.1961 -1.4999 0.0 0
M  V30 8 O 4.3301 1.0 0.0 0
M  V30 9 N 3.4641 -0.5 0.0 0
M  V30 10 C 4.3301 -1.9999 0.0 0
M  V30 11 C 3.4641 -1.4999 0.0 0
M  V30 12 C 2.598 0.0 0.0 0
M  V30 13 C 1.732 -0.5 0.0 0 CFG=2
M  V30 14 N 0.866 0.0 0.0 0
M  V30 15 C 1.732 -1.5 0.0 0
M  V30 16 C 0.0 -0.5 0.0 0
M  V30 17 C 0.866 -1.9999 0.0 0
M  V30 18 C 2.598 -2.0 0.0 0
M  V30 19 C -0.9135 -0.0932 0.0 0
M  V30 20 C -0.1045 -1.4945 0.0 0
M  V30 21 C 0.866 -2.9999 0.0 0
M  V30 22 C 2.598 -3.0 0.0 0
M  V30 23 C -1.5826 -0.8364 0.0 0
M  V30 24 C -1.0826 -1.7024 0.0 0
M  V30 25 C 1.732 -3.5 0.0 0
M  V30 26 C -2.5826 -0.8364 0.0 0
M  V30 27 C -1.5826 -2.5684 0.0 0
M  V30 28 C 1.732 -4.5 0.0 0
M  V30 29 C -3.0826 -1.7024 0.0 0
M  V30 30 C -2.5826 -2.5684 0.0 0
M  V30 31 C 2.732 -4.5 0.0 0
M  V30 32 C 1.732 -5.5 0.0 0
M  V30 33 C 0.732 -4.5 0.0 0
M  V30 END ATOM
M  V30 BEGIN BOND
M  V30 1 1 1 2
M  V30 2 1 2 3
M  V30 3 1 2 4
M  V30 4 1 2 5
M  V30 5 1 5 6
M  V30 6 2 5 7
M  V30 7 2 6 8
M  V30 8 1 6 9
M  V30 9 1 7 10
M  V30 10 1 9 11
M  V30 11 1 9 12
M  V30 12 1 13 12
M  V30 13 1 13 14 CFG=1
M  V30 14 1 13 15
M  V30 15 1 14 16
M  V30 16 2 15 17
M  V30 17 1 15 18
M  V30 18 1 16 19
M  V30 19 1 16 20
M  V30 20 1 17 21
M  V30 21 2 18 22
M  V30 22 1 19 23
M  V30 23 1 20 24
M  V30 24 2 21 25
M  V30 25 1 23 26
M  V30 26 1 24 27
M  V30 27 1 25 28
M  V30 28 2 26 29
M  V30 29 2 27 30
M  V30 30 1 28 31
M  V30 31 1 28 32
M  V30 32 1 28 33
M  V30 33 2 10 11
M  V30 34 1 22 25
M  V30 35 2 23 24
M  V30 36 1 29 30
M  V30 END BOND
M  V30 BEGIN COLLECTION
M  V30 MDLV30/STERAC1 ATOMS=(1 13)
M  V30 END COLLECTION
M  V30 END CTAB
M  END
>  <Column 1>
358

>  <Column 2>
PandemicResponseBox - Plate E

>  <Column 3>
F06

>  <Column 4>
MMV1634393

>  <Column 5>
10 mM

>  <Column 6>
ANTIVIRALS

>  <Column 7>


>  <Column 8>
None

>  <Column 9>


>  <Column 10>
FC(F)(F)C1=CC=C[N]([C]1=O)CC(NC2CC3=C(C2)C=CC=C3)C4=CC=C(C(C)(C)C)C=C4

>  <Column 11>
CHEMBL1650597

>  <Column 12>


>  <Column 13>
454.5

>  <Column 14>
C27 H29 F3 N2 O

>  <Tox-Glu>
ATCTOX

>  <Column 15>


>  <Column 16>
71 

>  <Column 17>
37 

>  <Column 18>
21 

>  <Column 19>


>  <Tox-Gal>
CTOXGAL

>  <Column 20>


>  <Column 21>
31 

>  <Column 22>
1 

>  <Column 23>
0 

>  <Column 24>


>  <Column 25>


>  <PAMPA>
PAMPA

>  <Column 26>
203

>  <Column 27>


>  <Column 28>


>  <Mouse>
ATMETMOU

>  <Column 29>
753

>  <Column 30>


$$$$
Compound 360
Actelion Java MolfileCreator 2.0

  0  0  0  0  0  0              0 V3000
M  V30 BEGIN CTAB
M  V30 COUNTS 20 21 0 0 0
M  V30 BEGIN ATOM
M  V30 1 S 6.9757 -1.5932 0.0 0
M  V30 2 C 6.0621 -1.9999 0.0 0
M  V30 3 C 7.6448 -2.3364 0.0 0
M  V30 4 N 6.1667 -2.9945 0.0 0
M  V30 5 C 5.1961 -1.4999 0.0 0
M  V30 6 C 7.1448 -3.2024 0.0 0
M  V30 7 C 8.6393 -2.2318 0.0 0
M  V30 8 C 5.1961 -0.5 0.0 0
M  V30 9 C 4.3301 -1.9999 0.0 0
M  V30 10 C 7.5515 -4.1159 0.0 0
M  V30 11 O 9.0461 -1.3183 0.0 0
M  V30 12 O 9.2271 -3.0408 0.0 0
M  V30 13 C 4.3301 0.0 0.0 0
M  V30 14 C 3.4641 -1.5 0.0 0
M  V30 15 C 10.2216 -2.9363 0.0 0
M  V30 16 C 3.4641 -0.5 0.0 0
M  V30 17 C 2.598 0.0 0.0 0
M  V30 18 C 1.732 -0.5 0.0 0
M  V30 19 C 0.866 0.0 0.0 0
M  V30 20 C 0.0 -0.5 0.0 0
M  V30 END ATOM
M  V30 BEGIN BOND
M  V30 1 1 1 2
M  V30 2 1 1 3
M  V30 3 2 2 4
M  V30 4 1 2 5
M  V30 5 2 3 6
M  V30 6 1 3 7
M  V30 7 2 5 8
M  V30 8 1 5 9
M  V30 9 1 6 10
M  V30 10 2 7 11
M  V30 11 1 7 12
M  V30 12 1 8 13
M  V30 13 2 9 14
M  V30 14 1 12 15
M  V30 15 2 13 16
M  V30 16 1 16 17
M  V30 17 1 17 18
M  V30 18 1 18 19
M  V30 19 1 19 20
M  V30 20 1 4 6
M  V30 21 1 14 16
M  V30 END BOND
M  V30 END CTAB
M  END
>  <Column 1>
359

>  <Column 2>
PandemicResponseBox - Plate E

>  <Column 3>
G06

>  <Column 4>
MMV1634392

>  <Column 5>
10 mM

>  <Column 6>
ANTIVIRALS

>  <Column 7>


>  <Column 8>
None

>  <Column 9>


>  <Column 10>
S1C(=NC(=C1C(=O)OC)C)C2=CC=C(CCCC)C=C2

>  <Column 11>
CHEMBL1797833

>  <Column 12>


>  <Column 13>
289.4

>  <Column 14>
C16 H19 N O2 S

>  <Tox-Glu>
ATCTOX

>  <Column 15>


>  <Column 16>
90 

>  <Column 17>
79 

>  <Column 18>
48 

>  <Column 19>


>  <Tox-Gal>
CTOXGAL

>  <Column 20>


>  <Column 21>
85 

>  <Column 22>
70 

>  <Column 23>
41 

>  <Column 24>


>  <Column 25>


>  <PAMPA>
PAMPA

>  <Column 26>
62

>  <Column 27>


>  <Column 28>


>  <Mouse>
ATMETMOU

>  <Column 29>
303

>  <Column 30>
Large variations

$$$$
Compound 361
Actelion Java MolfileCreator 2.0

  0  0  0  0  0  0              0 V3000
M  V30 BEGIN CTAB
M  V30 COUNTS 22 24 0 0 0
M  V30 BEGIN ATOM
M  V30 1 F 1.5504 -4.6009 0.0 0
M  V30 2 C 0.8073 -3.9318 0.0 0
M  V30 3 F 0.1382 -4.675 0.0 0
M  V30 4 F 0.0641 -3.2627 0.0 0
M  V30 5 C 1.4764 -3.1887 0.0 0
M  V30 6 N 2.4546 -3.3966 0.0 0
M  V30 7 C 1.1674 -2.2376 0.0 0
M  V30 8 C 3.1237 -2.6534 0.0 0
M  V30 9 C 1.8365 -1.4945 0.0 0
M  V30 10 N 4.1018 -2.8614 0.0 0
M  V30 11 C 2.8147 -1.7024 0.0 0
M  V30 12 N 1.732 -0.5 0.0 0
M  V30 13 N 3.3147 -0.8364 0.0 0
M  V30 14 C 2.6455 -0.0932 0.0 0
M  V30 15 C 0.866 0.0 0.0 0
M  V30 16 O 2.8535 0.8848 0.0 0
M  V30 17 C 0.0 -0.5 0.0 0
M  V30 18 C -0.866 0.0 0.0 0
M  V30 19 C 0.0 -1.4999 0.0 0
M  V30 20 C -1.732 -0.4999 0.0 0
M  V30 21 C -0.866 -1.9999 0.0 0
M  V30 22 C -1.732 -1.4999 0.0 0
M  V30 END ATOM
M  V30 BEGIN BOND
M  V30 1 1 1 2
M  V30 2 1 2 3
M  V30 3 1 2 4
M  V30 4 1 2 5
M  V30 5 2 5 6
M  V30 6 1 5 7
M  V30 7 1 6 8
M  V30 8 2 7 9
M  V30 9 1 8 10
M  V30 10 2 8 11
M  V30 11 1 9 12
M  V30 12 1 11 13
M  V30 13 1 12 14
M  V30 14 1 12 15
M  V30 15 2 14 16
M  V30 16 1 15 17
M  V30 17 2 17 18
M  V30 18 1 17 19
M  V30 19 1 18 20
M  V30 20 2 19 21
M  V30 21 2 20 22
M  V30 22 1 9 11
M  V30 23 1 13 14
M  V30 24 1 21 22
M  V30 END BOND
M  V30 END CTAB
M  END
>  <Column 1>
360

>  <Column 2>
PandemicResponseBox - Plate E

>  <Column 3>
H06

>  <Column 4>
MMV1634389

>  <Column 5>
10 mM

>  <Column 6>
ANTIVIRALS

>  <Column 7>


>  <Column 8>
None

>  <Column 9>


>  <Column 10>
FC(F)(F)C2=NC(=C1[NH][C]([N](C1=C2)CC3=CC=CC=C3)=O)N

>  <Column 11>
CHEMBL1760434

>  <Column 12>
Bioorganic & Medicinal Chemistry Letters�(2011),�21(19),�5939-5943.

>  <Column 13>
308.3

>  <Column 14>
C14 H11 F3 N4 O

>  <Tox-Glu>
ATCTOX

>  <Column 15>


>  <Column 16>
103 

>  <Column 17>
97 

>  <Column 18>
102 

>  <Column 19>


>  <Tox-Gal>
CTOXGAL

>  <Column 20>


>  <Column 21>
101 

>  <Column 22>
99 

>  <Column 23>
99 

>  <Column 24>


>  <Column 25>


>  <PAMPA>
PAMPA

>  <Column 26>
114

>  <Column 27>


>  <Column 28>


>  <Mouse>
ATMETMOU

>  <Column 29>
-1

>  <Column 30>


$$$$
Compound 362
Actelion Java MolfileCreator 2.0

  0  0  0  0  0  0              0 V3000
M  V30 BEGIN CTAB
M  V30 COUNTS 13 13 0 0 0
M  V30 BEGIN ATOM
M  V30 1 I 2.598 1.0 0.0 0
M  V30 2 C 2.598 0.0 0.0 0
M  V30 3 C 1.732 -0.5 0.0 0
M  V30 4 C 3.4641 -0.4999 0.0 0
M  V30 5 N 0.866 0.0 0.0 0 CHG=1 VAL=5
M  V30 6 C 1.732 -1.5 0.0 0
M  V30 7 C 3.4641 -1.4999 0.0 0
M  V30 8 O 0.866 1.0 0.0 0
M  V30 9 O 0.0 -0.5 0.0 0 CHG=-1
M  V30 10 C 2.598 -1.9999 0.0 0
M  V30 11 C 2.598 -2.9999 0.0 0
M  V30 12 O 1.732 -3.5 0.0 0
M  V30 13 N 3.4641 -3.4999 0.0 0
M  V30 END ATOM
M  V30 BEGIN BOND
M  V30 1 1 1 2
M  V30 2 2 2 3
M  V30 3 1 2 4
M  V30 4 1 3 5
M  V30 5 1 3 6
M  V30 6 2 4 7
M  V30 7 2 5 8
M  V30 8 1 5 9
M  V30 9 2 6 10
M  V30 10 1 10 11
M  V30 11 2 11 12
M  V30 12 1 11 13
M  V30 13 1 7 10
M  V30 END BOND
M  V30 END CTAB
M  END
>  <Column 1>
361

>  <Column 2>
PandemicResponseBox - Plate E

>  <Column 3>
A07

>  <Column 4>
MMV1581035

>  <Column 5>
10 mM

>  <Column 6>
ANTIVIRALS

>  <Column 7>
1

>  <Column 8>
Free Base/Acid

>  <Column 9>
Iniparib

>  <Column 10>
NC(=O)C1=CC(=C(I)C=C1)[N](=O)=O

>  <Column 11>
CHEMBL1170047

>  <Column 12>
J. Am. Chem. Soc. 2016, 138, 3856?3862

>  <Column 13>
292

>  <Column 14>
C7 H5 I N2 O3

>  <Tox-Glu>
ATCTOX

>  <Column 15>


>  <Column 16>
100 

>  <Column 17>
97 

>  <Column 18>
83 

>  <Column 19>


>  <Tox-Gal>
CTOXGAL

>  <Column 20>


>  <Column 21>
98 

>  <Column 22>
97 

>  <Column 23>
86 

>  <Column 24>


>  <Column 25>


>  <PAMPA>
PAMPA

>  <Column 26>
132

>  <Column 27>


>  <Column 28>


>  <Mouse>
ATMETMOU

>  <Column 29>


>  <Column 30>
Not determined; Low sensitivity

$$$$
Compound 363
Actelion Java MolfileCreator 2.0

  0  0  0  0  0  0              0 V3000
M  V30 BEGIN CTAB
M  V30 COUNTS 44 48 0 0 0
M  V30 BEGIN ATOM
M  V30 1 O 4.3301 0.9999 0.0 0
M  V30 2 C 4.3301 0.0 0.0 0
M  V30 3 N 5.1961 -0.5 0.0 0
M  V30 4 C 3.4641 -0.5 0.0 0 CFG=2
M  V30 5 C 6.0621 0.0 0.0 0
M  V30 6 N 2.598 0.0 0.0 0
M  V30 7 C 3.4641 -1.5 0.0 0
M  V30 8 C 6.9282 -0.5 0.0 0
M  V30 9 C 6.0621 0.9999 0.0 0
M  V30 10 C 2.598 1.0 0.0 0
M  V30 11 C 1.732 -0.5 0.0 0
M  V30 12 C 2.598 -1.9999 0.0 0
M  V30 13 C 4.3301 -2.0 0.0 0
M  V30 14 C 7.7942 0.0 0.0 0
M  V30 15 C 6.9282 1.4999 0.0 0
M  V30 16 C 3.4641 1.5 0.0 0
M  V30 17 C 1.732 1.5 0.0 0
M  V30 18 O 1.732 -1.5 0.0 0
M  V30 19 C 0.866 0.0 0.0 0
M  V30 20 C 2.598 -2.9999 0.0 0
M  V30 21 C 4.3301 -3.0 0.0 0
M  V30 22 C 7.7942 0.9999 0.0 0
M  V30 23 C 3.4641 2.5 0.0 0
M  V30 24 C 1.732 2.5 0.0 0
M  V30 25 C 0.0 -0.5 0.0 0
M  V30 26 O 1.732 -3.4999 0.0 0
M  V30 27 C 3.4641 -3.5 0.0 0
M  V30 28 O 5.1961 -3.5 0.0 0
M  V30 29 C 2.598 3.0 0.0 0
M  V30 30 C -0.9135 -0.0932 0.0 0
M  V30 31 C -0.1045 -1.4945 0.0 0
M  V30 32 C 1.732 -4.4999 0.0 0
M  V30 33 O 3.4641 -4.5 0.0 0
M  V30 34 C 6.0621 -3.0 0.0 0
M  V30 35 C 2.598 4.0 0.0 0
M  V30 36 C -1.5826 -0.8364 0.0 0
M  V30 37 C -1.2225 0.8577 0.0 0
M  V30 38 N -1.0826 -1.7024 0.0 0
M  V30 39 C 4.3301 -5.0 0.0 0
M  V30 40 C 3.4641 4.5 0.0 0
M  V30 41 C 1.732 4.5 0.0 0
M  V30 42 C -2.5608 -0.6284 0.0 0
M  V30 43 C -2.2007 1.0657 0.0 0
M  V30 44 C -2.8698 0.3225 0.0 0
M  V30 END ATOM
M  V30 BEGIN BOND
M  V30 1 2 1 2
M  V30 2 1 2 3
M  V30 3 1 4 2
M  V30 4 1 3 5
M  V30 5 1 4 6 CFG=1
M  V30 6 1 4 7
M  V30 7 1 5 8
M  V30 8 1 5 9
M  V30 9 1 6 10
M  V30 10 1 6 11
M  V30 11 2 7 12
M  V30 12 1 7 13
M  V30 13 1 8 14
M  V30 14 1 9 15
M  V30 15 2 10 16
M  V30 16 1 10 17
M  V30 17 2 11 18
M  V30 18 1 11 19
M  V30 19 1 12 20
M  V30 20 2 13 21
M  V30 21 1 14 22
M  V30 22 1 16 23
M  V30 23 2 17 24
M  V30 24 1 19 25
M  V30 25 1 20 26
M  V30 26 2 20 27
M  V30 27 1 21 28
M  V30 28 2 23 29
M  V30 29 1 25 30
M  V30 30 2 25 31
M  V30 31 1 26 32
M  V30 32 1 27 33
M  V30 33 1 28 34
M  V30 34 1 29 35
M  V30 35 2 30 36
M  V30 36 1 30 37
M  V30 37 1 31 38
M  V30 38 1 33 39
M  V30 39 1 35 40
M  V30 40 1 35 41
M  V30 41 1 36 42
M  V30 42 2 37 43
M  V30 43 2 42 44
M  V30 44 1 15 22
M  V30 45 1 21 27
M  V30 46 1 24 29
M  V30 47 1 36 38
M  V30 48 1 43 44
M  V30 END BOND
M  V30 BEGIN COLLECTION
M  V30 MDLV30/STERAC1 ATOMS=(1 4)
M  V30 END COLLECTION
M  V30 END CTAB
M  END
>  <Column 1>
362

>  <Column 2>
PandemicResponseBox - Plate E

>  <Column 3>
B07

>  <Column 4>
MMV1593544

>  <Column 5>
10 mM

>  <Column 6>
ANTIVIRALS

>  <Column 7>


>  <Column 8>
None

>  <Column 9>


>  <Column 10>
O=C(NC1CCCCC1)C(N(C2=CC=C(C(C)C)C=C2)C(=O)CC3=C[NH]C4=C3C=CC=C4)C5=CC(=C(OC)C(=C5)OC)OC

>  <Column 11>
CHEMBL3752642

>  <Column 12>


>  <Column 13>
597.7

>  <Column 14>
C36 H43 N3 O5

>  <Tox-Glu>
ATCTOX

>  <Column 15>


>  <Column 16>
76 

>  <Column 17>
73 

>  <Column 18>
73 

>  <Column 19>


>  <Tox-Gal>
CTOXGAL

>  <Column 20>


>  <Column 21>
51 

>  <Column 22>
35 

>  <Column 23>
32 

>  <Column 24>


>  <Column 25>


>  <PAMPA>
PAMPA

>  <Column 26>
299

>  <Column 27>


>  <Column 28>


>  <Mouse>
ATMETMOU

>  <Column 29>
669

>  <Column 30>


$$$$
Compound 364
Actelion Java MolfileCreator 2.0

  0  0  0  0  0  0              0 V3000
M  V30 BEGIN CTAB
M  V30 COUNTS 24 26 0 0 0
M  V30 BEGIN ATOM
M  V30 1 Cl 6.6807 1.2024 0.0 0
M  V30 2 C 5.6807 1.2024 0.0 0
M  V30 3 C 5.1807 2.0684 0.0 0
M  V30 4 C 5.1807 0.3364 0.0 0
M  V30 5 Cl 5.6807 2.9344 0.0 0
M  V30 6 C 4.1807 2.0684 0.0 0
M  V30 7 C 4.1807 0.3364 0.0 0
M  V30 8 C 3.6807 1.2024 0.0 0
M  V30 9 N 3.5116 -0.4067 0.0 0
M  V30 10 N 2.7026 0.9945 0.0 0
M  V30 11 C 2.598 0.0 0.0 0
M  V30 12 C 1.9594 1.6636 0.0 0 CFG=1
M  V30 13 N 1.732 -0.5 0.0 0
M  V30 14 O 2.0639 2.6581 0.0 0
M  V30 15 C 0.9813 1.4557 0.0 0 CFG=1
M  V30 16 C 1.732 -1.5 0.0 0
M  V30 17 C 1.1504 3.0649 0.0 0 CFG=2
M  V30 18 O 0.5745 0.5421 0.0 0
M  V30 19 C 0.4813 2.3217 0.0 0 CFG=2
M  V30 20 C 2.598 -2.0 0.0 0
M  V30 21 C 0.866 -2.0 0.0 0
M  V30 22 C 0.9425 4.043 0.0 0
M  V30 23 O -0.5132 2.4262 0.0 0
M  V30 24 O -0.0085 4.352 0.0 0
M  V30 END ATOM
M  V30 BEGIN BOND
M  V30 1 1 1 2
M  V30 2 2 2 3
M  V30 3 1 2 4
M  V30 4 1 3 5
M  V30 5 1 3 6
M  V30 6 2 4 7
M  V30 7 2 6 8
M  V30 8 1 7 9
M  V30 9 1 8 10
M  V30 10 2 9 11
M  V30 11 1 12 10 CFG=3
M  V30 12 1 11 13
M  V30 13 1 12 14
M  V30 14 1 15 12
M  V30 15 1 13 16
M  V30 16 1 17 14
M  V30 17 1 15 18 CFG=1
M  V30 18 1 19 15
M  V30 19 1 16 20
M  V30 20 1 16 21
M  V30 21 1 17 22 CFG=3
M  V30 22 1 19 23 CFG=1
M  V30 23 1 22 24
M  V30 24 1 7 8
M  V30 25 1 10 11
M  V30 26 1 17 19
M  V30 END BOND
M  V30 BEGIN COLLECTION
M  V30 MDLV30/STEABS ATOMS=(4 12 15 17 19)
M  V30 END COLLECTION
M  V30 END CTAB
M  END
>  <Column 1>
363

>  <Column 2>
PandemicResponseBox - Plate E

>  <Column 3>
C07

>  <Column 4>
MMV1593521

>  <Column 5>
10 mM

>  <Column 6>
ANTIVIRALS

>  <Column 7>


>  <Column 8>
None

>  <Column 9>
Maribavir

>  <Column 10>
ClC3=C(Cl)C=C2[N]([C@H]1O[C@@H](CO)[C@@H]([C@@H]1O)O)C(=NC2=C3)NC(C)C

>  <Column 11>
CHEMBL515408

>  <Column 12>


>  <Column 13>
376.2

>  <Column 14>
C15 H19 Cl2 N3 O4

>  <Tox-Glu>
ATCTOX

>  <Column 15>


>  <Column 16>
100 

>  <Column 17>
95 

>  <Column 18>
75 

>  <Column 19>


>  <Tox-Gal>
CTOXGAL

>  <Column 20>


>  <Column 21>
94 

>  <Column 22>
92 

>  <Column 23>
72 

>  <Column 24>


>  <Column 25>


>  <PAMPA>
PAMPA

>  <Column 26>
32

>  <Column 27>


>  <Column 28>


>  <Mouse>
ATMETMOU

>  <Column 29>
7

>  <Column 30>


$$$$
Compound 365
Actelion Java MolfileCreator 2.0

  0  0  0  0  0  0              0 V3000
M  V30 BEGIN CTAB
M  V30 COUNTS 30 33 0 0 0
M  V30 BEGIN ATOM
M  V30 1 I 3.4641 2.5 0.0 0
M  V30 2 C 3.4641 1.5 0.0 0
M  V30 3 C 2.598 1.0 0.0 0
M  V30 4 C 4.3301 1.0 0.0 0
M  V30 5 C 2.598 0.0 0.0 0
M  V30 6 C 4.3301 0.0 0.0 0
M  V30 7 C 3.4641 -0.4999 0.0 0
M  V30 8 C 1.732 -0.5 0.0 0
M  V30 9 N 0.866 0.0 0.0 0
M  V30 10 C 0.0 -0.5 0.0 0
M  V30 11 N 0.0 -1.5 0.0 0
M  V30 12 C -0.866 0.0 0.0 0
M  V30 13 C -0.866 -1.9999 0.0 0
M  V30 14 N -1.0739 0.9781 0.0 0
M  V30 15 C -1.732 -0.4999 0.0 0
M  V30 16 Cl -0.866 -2.9999 0.0 0
M  V30 17 N -1.732 -1.4999 0.0 0
M  V30 18 C -2.0684 1.0826 0.0 0
M  V30 19 N -2.4751 0.1691 0.0 0
M  V30 20 C -3.4533 -0.0387 0.0 0 CFG=2
M  V30 21 O -4.1964 0.6303 0.0 0
M  V30 22 C -3.86 -0.9523 0.0 0 CFG=2
M  V30 23 C -5.0625 0.1303 0.0 0
M  V30 24 O -3.36 -1.8183 0.0 0
M  V30 25 C -4.8546 -0.8477 0.0 0 CFG=1
M  V30 26 C -5.976 0.537 0.0 0
M  V30 27 O -5.5237 -1.5909 0.0 0
M  V30 28 O -6.785 -0.0506 0.0 0
M  V30 29 N -6.0805 1.5316 0.0 0
M  V30 30 C -6.9941 1.9383 0.0 0
M  V30 END ATOM
M  V30 BEGIN BOND
M  V30 1 1 1 2
M  V30 2 2 2 3
M  V30 3 1 2 4
M  V30 4 1 3 5
M  V30 5 2 4 6
M  V30 6 2 5 7
M  V30 7 1 5 8
M  V30 8 1 8 9
M  V30 9 1 9 10
M  V30 10 2 10 11
M  V30 11 1 10 12
M  V30 12 1 11 13
M  V30 13 1 12 14
M  V30 14 2 12 15
M  V30 15 1 13 16
M  V30 16 2 13 17
M  V30 17 2 14 18
M  V30 18 1 15 19
M  V30 19 1 20 19 CFG=1
M  V30 20 1 20 21
M  V30 21 1 22 20
M  V30 22 1 21 23
M  V30 23 1 22 24 CFG=3
M  V30 24 1 25 22
M  V30 25 1 23 26
M  V30 26 1 25 27 CFG=3
M  V30 27 2 26 28
M  V30 28 1 26 29
M  V30 29 1 29 30
M  V30 30 1 6 7
M  V30 31 1 15 17
M  V30 32 1 18 19
M  V30 33 1 23 25
M  V30 END BOND
M  V30 BEGIN COLLECTION
M  V30 MDLV30/STEABS ATOMS=(3 20 22 25)
M  V30 END COLLECTION
M  V30 END CTAB
M  END
>  <Column 1>
364

>  <Column 2>
PandemicResponseBox - Plate E

>  <Column 3>
D07

>  <Column 4>
MMV1593514

>  <Column 5>
10 mM

>  <Column 6>
ANTIVIRALS

>  <Column 7>


>  <Column 8>
None

>  <Column 9>
Namodenoson

>  <Column 10>
IC1=CC(=CC=C1)CNC2=NC(=NC3=C2N=C[N]3[C@@H]4OC(C(=O)NC)[C@H]([C@H]4O)O)Cl

>  <Column 11>
CHEMBL431733

>  <Column 12>


>  <Column 13>
544.7

>  <Column 14>
C18 H18 Cl I N6 O4

>  <Tox-Glu>
ATCTOX

>  <Column 15>


>  <Column 16>
83 

>  <Column 17>
13 

>  <Column 18>
0 

>  <Column 19>


>  <Tox-Gal>
CTOXGAL

>  <Column 20>


>  <Column 21>
91 

>  <Column 22>
3 

>  <Column 23>
0 

>  <Column 24>


>  <Column 25>


>  <PAMPA>
PAMPA

>  <Column 26>
105

>  <Column 27>


>  <Column 28>


>  <Mouse>
ATMETMOU

>  <Column 29>


>  <Column 30>
Not determined; Large variations

$$$$
Compound 366
Actelion Java MolfileCreator 2.0

  0  0  0  0  0  0              0 V3000
M  V30 BEGIN CTAB
M  V30 COUNTS 26 27 0 0 0
M  V30 BEGIN ATOM
M  V30 1 O 6.9282 -0.5 0.0 0
M  V30 2 C 6.0621 0.0 0.0 0
M  V30 3 C 7.7942 0.0 0.0 0
M  V30 4 C 6.0621 0.9999 0.0 0
M  V30 5 C 5.1961 -0.5 0.0 0
M  V30 6 O 6.9282 1.4999 0.0 0
M  V30 7 C 5.1961 1.4999 0.0 0
M  V30 8 C 4.3301 0.0 0.0 0
M  V30 9 C 6.9282 2.4999 0.0 0
M  V30 10 C 4.3301 1.0 0.0 0
M  V30 11 C 3.4641 -0.5 0.0 0
M  V30 12 C 2.598 0.0 0.0 0 CFG=1
M  V30 13 C 1.732 -0.5 0.0 0 CFG=1
M  V30 14 C 2.598 1.0 0.0 0
M  V30 15 C 0.866 0.0 0.0 0
M  V30 16 C 1.732 -1.5 0.0 0
M  V30 17 C 0.0 -0.5 0.0 0
M  V30 18 C -0.866 0.0 0.0 0
M  V30 19 C 0.0 -1.4999 0.0 0
M  V30 20 C -1.732 -0.4999 0.0 0
M  V30 21 C -0.866 -1.9999 0.0 0
M  V30 22 O -2.598 0.0 0.0 0
M  V30 23 C -1.732 -1.4999 0.0 0
M  V30 24 C -3.4641 -0.4999 0.0 0
M  V30 25 O -2.598 -1.9999 0.0 0
M  V30 26 C -2.598 -2.9999 0.0 0
M  V30 END ATOM
M  V30 BEGIN BOND
M  V30 1 1 1 2
M  V30 2 1 1 3
M  V30 3 2 2 4
M  V30 4 1 2 5
M  V30 5 1 4 6
M  V30 6 1 4 7
M  V30 7 2 5 8
M  V30 8 1 6 9
M  V30 9 2 7 10
M  V30 10 1 8 11
M  V30 11 1 12 11
M  V30 12 1 13 12
M  V30 13 1 12 14 CFG=1
M  V30 14 1 13 15
M  V30 15 1 13 16 CFG=3
M  V30 16 1 15 17
M  V30 17 2 17 18
M  V30 18 1 17 19
M  V30 19 1 18 20
M  V30 20 2 19 21
M  V30 21 1 20 22
M  V30 22 2 20 23
M  V30 23 1 22 24
M  V30 24 1 23 25
M  V30 25 1 25 26
M  V30 26 1 8 10
M  V30 27 1 21 23
M  V30 END BOND
M  V30 BEGIN COLLECTION
M  V30 MDLV30/STEABS ATOMS=(2 12 13)
M  V30 END COLLECTION
M  V30 END CTAB
M  END
>  <Column 1>
365

>  <Column 2>
PandemicResponseBox - Plate E

>  <Column 3>
E07

>  <Column 4>
MMV1581036

>  <Column 5>
10 mM

>  <Column 6>
ANTIVIRALS

>  <Column 7>
1

>  <Column 8>
Free Base/Acid

>  <Column 9>
Terameprocol

>  <Column 10>
O(C1=C(OC)C=CC(=C1)C[C@@H]([C@@H](CC2=CC(=C(OC)C=C2)OC)C)C)C

>  <Column 11>
CHEMBL90983

>  <Column 12>


>  <Column 13>
358.5

>  <Column 14>
C22 H30 O4

>  <Tox-Glu>
ATCTOX

>  <Column 15>


>  <Column 16>
106 

>  <Column 17>
35 

>  <Column 18>
1 

>  <Column 19>


>  <Tox-Gal>
CTOXGAL

>  <Column 20>


>  <Column 21>
78 

>  <Column 22>
1 

>  <Column 23>
1 

>  <Column 24>


>  <Column 25>


>  <PAMPA>
PAMPA

>  <Column 26>
428

>  <Column 27>


>  <Column 28>


>  <Mouse>
ATMETMOU

>  <Column 29>
515

>  <Column 30>


$$$$
Compound 367
Actelion Java MolfileCreator 2.0

  0  0  0  0  0  0              0 V3000
M  V30 BEGIN CTAB
M  V30 COUNTS 21 23 0 0 0
M  V30 BEGIN ATOM
M  V30 1 Cl 8.183 0.0463 0.0 0
M  V30 2 C 6.7901 -0.5306 0.0 0
M  V30 3 C 5.5939 0.3871 0.0 0
M  V30 4 C 6.5933 -2.0254 0.0 0
M  V30 5 C 4.2867 -0.247 0.0 0
M  V30 6 C 5.2004 -2.6023 0.0 0
M  V30 7 C 4.0042 -1.6845 0.0 0
M  V30 8 C 2.6113 -2.2615 0.0 0
M  V30 9 C 2.6113 -0.7538 0.0 0
M  V30 10 C 1.5452 -3.3276 0.0 0
M  V30 11 C 3.6774 -3.3276 0.0 0
M  V30 12 O 3.7456 0.1145 0.0 0
M  V30 13 N 1.3056 0.0 0.0 0
M  V30 14 C 2.6113 -4.3936 0.0 0
M  V30 15 C 0.0 -0.7538 0.0 0
M  V30 16 C 1.3056 1.5076 0.0 0
M  V30 17 C 0.0 -2.2615 0.0 0
M  V30 18 C -1.3056 0.0 0.0 0
M  V30 19 C -1.3056 -3.0153 0.0 0
M  V30 20 C -2.6113 -0.7538 0.0 0
M  V30 21 C -2.6113 -2.2615 0.0 0
M  V30 END ATOM
M  V30 BEGIN BOND
M  V30 1 1 1 2
M  V30 2 2 2 3
M  V30 3 1 2 4
M  V30 4 1 3 5
M  V30 5 2 4 6
M  V30 6 2 5 7
M  V30 7 1 7 8
M  V30 8 1 8 9
M  V30 9 1 8 10
M  V30 10 1 8 11
M  V30 11 2 9 12
M  V30 12 1 9 13
M  V30 13 1 10 14
M  V30 14 1 13 15
M  V30 15 1 13 16
M  V30 16 2 15 17
M  V30 17 1 15 18
M  V30 18 1 17 19
M  V30 19 2 18 20
M  V30 20 2 19 21
M  V30 21 1 6 7
M  V30 22 1 11 14
M  V30 23 1 20 21
M  V30 END BOND
M  V30 END CTAB
M  END
>  <Column 1>
366

>  <Column 2>
PandemicResponseBox - Plate E

>  <Column 3>
F07

>  <Column 4>
MMV1581030

>  <Column 5>
10 mM

>  <Column 6>
ANTIVIRALS

>  <Column 7>
1

>  <Column 8>
Free Base/Acid

>  <Column 9>


>  <Column 10>
ClC3=CC=C(C2(C(=O)N(C1=CC=CC=C1)C)CCC2)C=C3

>  <Column 11>
CHEMBL1083323

>  <Column 12>


>  <Column 13>
299.8

>  <Column 14>
C18 H18 Cl N O

>  <Tox-Glu>
ATCTOX

>  <Column 15>


>  <Column 16>
104 

>  <Column 17>
93 

>  <Column 18>
0 

>  <Column 19>


>  <Tox-Gal>
CTOXGAL

>  <Column 20>


>  <Column 21>
98 

>  <Column 22>
93 

>  <Column 23>
0 

>  <Column 24>


>  <Column 25>


>  <PAMPA>
PAMPA

>  <Column 26>
239

>  <Column 27>


>  <Column 28>


>  <Mouse>
ATMETMOU

>  <Column 29>
532

>  <Column 30>


$$$$
Compound 368
Actelion Java MolfileCreator 2.0

  0  0  0  0  0  0              0 V3000
M  V30 BEGIN CTAB
M  V30 COUNTS 21 23 0 0 0
M  V30 BEGIN ATOM
M  V30 1 Br 3.8971 -9.0 0.0 0
M  V30 2 C 3.8971 -7.5 0.0 0
M  V30 3 C 5.1961 -6.75 0.0 0
M  V30 4 C 2.598 -6.75 0.0 0
M  V30 5 C 5.1961 -5.25 0.0 0
M  V30 6 C 2.598 -5.2499 0.0 0
M  V30 7 C 3.8971 -4.5 0.0 0
M  V30 8 C 3.8971 -3.0 0.0 0
M  V30 9 N 5.1961 -2.25 0.0 0
M  V30 10 C 2.598 -2.25 0.0 0
M  V30 11 C 5.1961 -0.75 0.0 0
M  V30 12 C 2.598 -0.75 0.0 0
M  V30 13 C 3.8971 0.0 0.0 0
M  V30 14 C 6.4951 0.0 0.0 0
M  V30 15 C 1.299 0.0 0.0 0
M  V30 16 C 3.8971 1.5 0.0 0
M  V30 17 C 6.4951 1.4999 0.0 0
M  V30 18 O 1.299 1.5 0.0 0
M  V30 19 O 0.0 -0.75 0.0 0
M  V30 20 C 5.1961 2.2499 0.0 0
M  V30 21 Cl 5.1961 3.75 0.0 0
M  V30 END ATOM
M  V30 BEGIN BOND
M  V30 1 1 1 2
M  V30 2 2 2 3
M  V30 3 1 2 4
M  V30 4 1 3 5
M  V30 5 2 4 6
M  V30 6 2 5 7
M  V30 7 1 7 8
M  V30 8 2 8 9
M  V30 9 1 8 10
M  V30 10 1 9 11
M  V30 11 2 10 12
M  V30 12 1 11 13
M  V30 13 2 11 14
M  V30 14 1 12 15
M  V30 15 2 13 16
M  V30 16 1 14 17
M  V30 17 2 15 18
M  V30 18 1 15 19
M  V30 19 1 16 20
M  V30 20 1 20 21
M  V30 21 1 6 7
M  V30 22 1 12 13
M  V30 23 2 17 20
M  V30 END BOND
M  V30 END CTAB
M  END
>  <Column 1>
367

>  <Column 2>
PandemicResponseBox - Plate E

>  <Column 3>
G07

>  <Column 4>
MMV247764

>  <Column 5>
10 mM

>  <Column 6>
ANTIVIRALS

>  <Column 7>


>  <Column 8>
None

>  <Column 9>


>  <Column 10>
BrC3=CC=C(C2=NC1=CC=C(C=C1C(=C2)C(=O)O)Cl)C=C3

>  <Column 11>
CHEMBL153238

>  <Column 12>
ACS Med. Chem. Lett., 2013, 4 (6), pp 517-521

>  <Column 13>
362.6

>  <Column 14>
C16H9BrClNO2

>  <Tox-Glu>
ATCTOX

>  <Column 15>


>  <Column 16>
107 

>  <Column 17>
104 

>  <Column 18>
92 

>  <Column 19>


>  <Tox-Gal>
CTOXGAL

>  <Column 20>


>  <Column 21>
98 

>  <Column 22>
96 

>  <Column 23>
72 

>  <Column 24>


>  <Column 25>


>  <PAMPA>
PAMPA

>  <Column 26>
55

>  <Column 27>


>  <Column 28>


>  <Mouse>
ATMETMOU

>  <Column 29>
17

>  <Column 30>


$$$$
Compound 369
Actelion Java MolfileCreator 2.0

  0  0  0  0  0  0              0 V3000
M  V30 BEGIN CTAB
M  V30 COUNTS 32 36 0 0 0
M  V30 BEGIN ATOM
M  V30 1 S 2.7026 0.9945 0.0 0
M  V30 2 C 2.598 0.0 0.0 0
M  V30 3 C 3.6807 1.2024 0.0 0
M  V30 4 N 3.5116 -0.4067 0.0 0
M  V30 5 N 1.732 -0.5 0.0 0
M  V30 6 C 4.1807 0.3364 0.0 0
M  V30 7 C 4.1807 2.0684 0.0 0
M  V30 8 C 0.866 0.0 0.0 0 CFG=2
M  V30 9 C 5.1807 0.3364 0.0 0
M  V30 10 C 5.1807 2.0684 0.0 0
M  V30 11 C 0.866 1.0 0.0 0
M  V30 12 C 0.0 -0.5 0.0 0
M  V30 13 C 5.6807 1.2024 0.0 0
M  V30 14 C 0.0 1.4999 0.0 0
M  V30 15 C 1.732 1.5 0.0 0
M  V30 16 C -0.866 0.0 0.0 0
M  V30 17 C 0.0 -1.4999 0.0 0
M  V30 18 O -0.866 0.9999 0.0 0
M  V30 19 C 0.0 2.4999 0.0 0
M  V30 20 C 1.732 2.5 0.0 0
M  V30 21 C -1.732 -0.4999 0.0 0
M  V30 22 C -0.866 -1.9999 0.0 0
M  V30 23 N -0.866 2.9999 0.0 0
M  V30 24 C 0.866 3.0 0.0 0
M  V30 25 C -1.732 -1.4999 0.0 0
M  V30 26 C -0.866 3.9999 0.0 0
M  V30 27 C 0.866 3.9999 0.0 0
M  V30 28 O -2.598 -1.9999 0.0 0
M  V30 29 C 0.0 4.4999 0.0 0
M  V30 30 C -3.4641 -1.4999 0.0 0
M  V30 31 F -3.4641 -0.4999 0.0 0
M  V30 32 F -4.3301 -1.9999 0.0 0
M  V30 END ATOM
M  V30 BEGIN BOND
M  V30 1 1 1 2
M  V30 2 1 1 3
M  V30 3 2 2 4
M  V30 4 1 2 5
M  V30 5 2 3 6
M  V30 6 1 3 7
M  V30 7 1 8 5 CFG=1
M  V30 8 1 6 9
M  V30 9 2 7 10
M  V30 10 1 8 11
M  V30 11 1 8 12
M  V30 12 2 9 13
M  V30 13 2 11 14
M  V30 14 1 11 15
M  V30 15 2 12 16
M  V30 16 1 12 17
M  V30 17 1 14 18
M  V30 18 1 14 19
M  V30 19 2 15 20
M  V30 20 1 16 21
M  V30 21 2 17 22
M  V30 22 2 19 23
M  V30 23 1 19 24
M  V30 24 2 21 25
M  V30 25 1 23 26
M  V30 26 2 24 27
M  V30 27 1 25 28
M  V30 28 2 26 29
M  V30 29 1 28 30
M  V30 30 1 30 31
M  V30 31 1 30 32
M  V30 32 1 4 6
M  V30 33 1 10 13
M  V30 34 1 20 24
M  V30 35 1 22 25
M  V30 36 1 27 29
M  V30 END BOND
M  V30 BEGIN COLLECTION
M  V30 MDLV30/STERAC1 ATOMS=(1 8)
M  V30 END COLLECTION
M  V30 END CTAB
M  END
>  <Column 1>
368

>  <Column 2>
PandemicResponseBox - Plate E

>  <Column 3>
H07

>  <Column 4>
MMV019724

>  <Column 5>
10 mM

>  <Column 6>
ANTIVIRALS

>  <Column 7>


>  <Column 8>
None

>  <Column 9>


>  <Column 10>
S1C(=NC2=C1C=CC=C2)NC(C4=C(O)C3=NC=CC=C3C=C4)C5=CC=C(OC(F)F)C=C5

>  <Column 11>
CHEMBL548113

>  <Column 12>
WO�2016057518

>  <Column 13>
449.5

>  <Column 14>
C24H17F2N3O2S

>  <Tox-Glu>
ATCTOX

>  <Column 15>


>  <Column 16>
70 

>  <Column 17>
61 

>  <Column 18>
55 

>  <Column 19>


>  <Tox-Gal>
CTOXGAL

>  <Column 20>


>  <Column 21>
77 

>  <Column 22>
31 

>  <Column 23>
12 

>  <Column 24>


>  <Column 25>


>  <PAMPA>
PAMPA

>  <Column 26>
36

>  <Column 27>


>  <Column 28>


>  <Mouse>
ATMETMOU

>  <Column 29>
57

>  <Column 30>


$$$$
Compound 370
Actelion Java MolfileCreator 2.0

  0  0  0  0  0  0              0 V3000
M  V30 BEGIN CTAB
M  V30 COUNTS 33 37 0 0 0
M  V30 BEGIN ATOM
M  V30 1 O 1.732 -0.5 0.0 0
M  V30 2 C 0.866 0.0 0.0 0
M  V30 3 O 0.866 1.0 0.0 0
M  V30 4 C 0.0 -0.5 0.0 0 CFG=2
M  V30 5 C -0.809 -1.0877 0.0 0 CFG=1
M  V30 6 C -0.1045 0.4945 0.0 0
M  V30 7 C 0.809 -1.0877 0.0 0
M  V30 8 C -1.7225 -0.681 0.0 0 CFG=2
M  V30 9 C -0.5 -2.0388 0.0 0 CFG=1
M  V30 10 C -1.018 0.9012 0.0 0
M  V30 11 C 0.4999 -2.0388 0.0 0
M  V30 12 C -1.827 0.3134 0.0 0 CFG=1
M  V30 13 C -2.5315 -1.2688 0.0 0
M  V30 14 C -1.0877 -2.8478 0.0 0
M  V30 15 C -2.7406 0.7202 0.0 0 CFG=1
M  V30 16 C -2.1816 1.3079 0.0 0
M  V30 17 C -3.4451 -0.862 0.0 0
M  V30 18 C -2.0823 -2.7433 0.0 0
M  V30 19 C -0.681 -3.7614 0.0 0
M  V30 20 C -3.5496 0.1324 0.0 0 CFG=2
M  V30 21 C -2.8451 1.7147 0.0 0
M  V30 22 C -1.807 1.3524 0.0 0
M  V30 23 C -4.4631 0.5391 0.0 0 CFG=2
M  V30 24 C -3.7587 2.1214 0.0 0
M  V30 25 C -4.5677 1.5336 0.0 0 CFG=1
M  V30 26 C -5.2722 -0.0486 0.0 0
M  V30 27 C -4.3586 -0.4553 0.0 0
M  V30 28 C -5.4812 1.9404 0.0 0
M  V30 29 C -6.1857 0.3581 0.0 0
M  V30 30 C -6.2902 1.3526 0.0 0 CFG=2
M  V30 31 C -5.0745 2.8539 0.0 0
M  V30 32 C -6.069 2.7494 0.0 0
M  V30 33 O -7.2038 1.7593 0.0 0
M  V30 END ATOM
M  V30 BEGIN BOND
M  V30 1 2 1 2
M  V30 2 1 2 3
M  V30 3 1 4 2 CFG=3
M  V30 4 1 5 4
M  V30 5 1 4 6
M  V30 6 1 4 7
M  V30 7 1 5 8 CFG=3
M  V30 8 1 9 5
M  V30 9 1 6 10
M  V30 10 1 7 11
M  V30 11 1 12 8
M  V30 12 1 8 13 CFG=1
M  V30 13 1 9 14 CFG=1
M  V30 14 1 15 12
M  V30 15 1 12 16 CFG=1
M  V30 16 1 13 17
M  V30 17 2 14 18
M  V30 18 1 14 19
M  V30 19 1 20 15
M  V30 20 1 15 21
M  V30 21 1 15 22 CFG=3
M  V30 22 1 23 20
M  V30 23 1 21 24
M  V30 24 1 25 23
M  V30 25 1 23 26
M  V30 26 1 23 27 CFG=3
M  V30 27 1 25 28
M  V30 28 1 26 29
M  V30 29 1 30 28
M  V30 30 1 28 31
M  V30 31 1 28 32
M  V30 32 1 30 33 CFG=3
M  V30 33 1 9 11
M  V30 34 1 10 12
M  V30 35 1 20 17 CFG=3
M  V30 36 1 25 24 CFG=3
M  V30 37 1 29 30
M  V30 END BOND
M  V30 BEGIN COLLECTION
M  V30 MDLV30/STEABS ATOMS=(10 4 5 8 9 12 15 20 23 25 30)
M  V30 END COLLECTION
M  V30 END CTAB
M  END
>  <Column 1>
369

>  <Column 2>
PandemicResponseBox - Plate E

>  <Column 3>
A08

>  <Column 4>
MMV638198

>  <Column 5>
10 mM

>  <Column 6>
ANTIVIRALS

>  <Column 7>


>  <Column 8>
None

>  <Column 9>
Betulinic acid

>  <Column 10>
O=C(O)[C@]45[C@@H]([C@@H]3[C@@]([C@]2([C@@H]([C@@]1([C@H](C([C@@H](O)CC1)(C)C)CC2)C)CC3)C)(C)CC4)[C@H](C(=C)C)CC5

>  <Column 11>
CHEMBL269277

>  <Column 12>


>  <Column 13>
456.7

>  <Column 14>
C30H48O3

>  <Tox-Glu>
ATCTOX

>  <Column 15>


>  <Column 16>
46 

>  <Column 17>
65 

>  <Column 18>
88 

>  <Column 19>


>  <Tox-Gal>
CTOXGAL

>  <Column 20>


>  <Column 21>
55 

>  <Column 22>
51 

>  <Column 23>
89 

>  <Column 24>


>  <Column 25>


>  <PAMPA>
PAMPA

>  <Column 26>
undetected

>  <Column 27>
low sensitivity

>  <Column 28>


>  <Mouse>
ATMETMOU

>  <Column 29>


>  <Column 30>
Not determined; Low sensitivity

$$$$
Compound 371
Actelion Java MolfileCreator 2.0

  0  0  0  0  0  0              0 V3000
M  V30 BEGIN CTAB
M  V30 COUNTS 20 22 0 0 0
M  V30 BEGIN ATOM
M  V30 1 F 8.3675 -6.0777 0.0 0
M  V30 2 C 8.5243 -4.5859 0.0 0
M  V30 3 N 9.8946 -3.9758 0.0 0
M  V30 4 N 7.3107 -3.7043 0.0 0
M  V30 5 C 10.0514 -2.4841 0.0 0
M  V30 6 C 7.4675 -2.2125 0.0 0
M  V30 7 N 11.4217 -1.874 0.0 0
M  V30 8 C 8.8378 -1.6024 0.0 0
M  V30 9 N 6.4638 -1.0978 0.0 0
M  V30 10 N 8.681 -0.1106 0.0 0
M  V30 11 C 7.2138 0.2012 0.0 0
M  V30 12 C 4.972 -1.2546 0.0 0 CFG=1
M  V30 13 O 3.9683 -0.1398 0.0 0
M  V30 14 C 4.222 -2.5536 0.0 0 CFG=1
M  V30 15 C 2.598 -0.75 0.0 0 CFG=2
M  V30 16 O 4.8321 -3.9239 0.0 0
M  V30 17 C 2.7548 -2.2417 0.0 0 CFG=2
M  V30 18 C 1.299 0.0 0.0 0
M  V30 19 O 1.6401 -3.2454 0.0 0
M  V30 20 O 0.0 -0.75 0.0 0
M  V30 END ATOM
M  V30 BEGIN BOND
M  V30 1 1 1 2
M  V30 2 2 2 3
M  V30 3 1 2 4
M  V30 4 1 3 5
M  V30 5 2 4 6
M  V30 6 1 5 7
M  V30 7 2 5 8
M  V30 8 1 6 9
M  V30 9 1 8 10
M  V30 10 1 9 11
M  V30 11 1 12 9 CFG=3
M  V30 12 1 12 13
M  V30 13 1 14 12
M  V30 14 1 15 13
M  V30 15 1 14 16 CFG=1
M  V30 16 1 17 14
M  V30 17 1 15 18 CFG=3
M  V30 18 1 17 19 CFG=1
M  V30 19 1 18 20
M  V30 20 1 6 8
M  V30 21 2 10 11
M  V30 22 1 15 17
M  V30 END BOND
M  V30 BEGIN COLLECTION
M  V30 MDLV30/STEABS ATOMS=(4 12 14 15 17)
M  V30 END COLLECTION
M  V30 END CTAB
M  END
>  <Column 1>
370

>  <Column 2>
PandemicResponseBox - Plate E

>  <Column 3>
B08

>  <Column 4>
MMV637413

>  <Column 5>
10 mM

>  <Column 6>
ANTIVIRALS

>  <Column 7>


>  <Column 8>
None

>  <Column 9>
Fludarabine

>  <Column 10>
FC2=NC(=C1N=C[N](C1=N2)[C@H]3O[C@@H](CO)[C@@H]([C@@H]3O)O)N

>  <Column 11>
CHEMBL1568

>  <Column 12>


>  <Column 13>
285.2

>  <Column 14>
C10H12FN5O4

>  <Tox-Glu>
ATCTOX

>  <Column 15>


>  <Column 16>
82 

>  <Column 17>
68 

>  <Column 18>
60 

>  <Column 19>


>  <Tox-Gal>
CTOXGAL

>  <Column 20>


>  <Column 21>
144 

>  <Column 22>
62 

>  <Column 23>
40 

>  <Column 24>


>  <Column 25>


>  <PAMPA>
PAMPA

>  <Column 26>
undetected

>  <Column 27>
low sensitivity

>  <Column 28>


>  <Mouse>
ATMETMOU

>  <Column 29>


>  <Column 30>
Not determined; Low sensitivity

$$$$
Compound 372
Actelion Java MolfileCreator 2.0

  0  0  0  0  0  0              0 V3000
M  V30 BEGIN CTAB
M  V30 COUNTS 34 38 0 0 0
M  V30 BEGIN ATOM
M  V30 1 Cl 3.9526 4.5641 0.0 0
M  V30 2 C 5.2701 3.8034 0.0 0
M  V30 3 C 5.2701 2.282 0.0 0
M  V30 4 C 6.5877 4.5641 0.0 0
M  V30 5 C 6.5877 1.5213 0.0 0
M  V30 6 C 7.9052 3.8034 0.0 0
M  V30 7 C 6.5877 0.0 0.0 0
M  V30 8 C 7.9052 2.282 0.0 0
M  V30 9 C 5.2701 -0.7606 0.0 0
M  V30 10 C 7.9052 -0.7606 0.0 0
M  V30 11 C 5.2701 -2.282 0.0 0
M  V30 12 C 3.9526 0.0 0.0 0
M  V30 13 C 7.9052 -2.282 0.0 0
M  V30 14 N 6.5877 -3.0427 0.0 0
M  V30 15 C 3.9526 -3.0427 0.0 0
M  V30 16 C 2.635 -0.7606 0.0 0
M  V30 17 O 9.2228 -3.0427 0.0 0
M  V30 18 C 6.5877 -4.5641 0.0 0
M  V30 19 C 2.7552 -2.1336 0.0 0
M  V30 20 C 1.3175 0.0 0.0 0 CFG=2
M  V30 21 N 1.3175 1.5213 0.0 0
M  V30 22 C 1.3175 -1.5213 0.0 0
M  V30 23 C 0.0 -0.7606 0.0 0
M  V30 24 C 0.1502 -2.309 0.0 0
M  V30 25 C 2.4241 -2.5985 0.0 0
M  V30 26 N -1.3898 -0.1418 0.0 0
M  V30 27 C -0.4593 -2.2579 0.0 0
M  V30 28 C 0.0 -3.8034 0.0 0
M  V30 29 C 2.635 -3.8034 0.0 0
M  V30 30 C -2.4078 -1.2724 0.0 0
M  V30 31 C -1.7061 1.3462 0.0 0
M  V30 32 N -1.6471 -2.59 0.0 0
M  V30 33 C 1.3175 -4.5641 0.0 0
M  V30 34 Cl 1.3175 -6.0854 0.0 0
M  V30 END ATOM
M  V30 BEGIN BOND
M  V30 1 1 1 2
M  V30 2 2 2 3
M  V30 3 1 2 4
M  V30 4 1 3 5
M  V30 5 2 4 6
M  V30 6 1 5 7
M  V30 7 2 5 8
M  V30 8 1 7 9
M  V30 9 2 7 10
M  V30 10 2 9 11
M  V30 11 1 9 12
M  V30 12 1 10 13
M  V30 13 1 11 14
M  V30 14 1 11 15
M  V30 15 2 12 16
M  V30 16 2 13 17
M  V30 17 1 14 18
M  V30 18 2 15 19
M  V30 19 1 20 16
M  V30 20 1 20 21
M  V30 21 1 20 22 CFG=1
M  V30 22 1 20 23
M  V30 23 2 22 24
M  V30 24 1 22 25
M  V30 25 1 23 26
M  V30 26 2 23 27
M  V30 27 1 24 28
M  V30 28 2 25 29
M  V30 29 1 26 30
M  V30 30 1 26 31
M  V30 31 1 27 32
M  V30 32 2 28 33
M  V30 33 1 33 34
M  V30 34 1 6 8
M  V30 35 1 13 14
M  V30 36 1 16 19
M  V30 37 1 29 33
M  V30 38 2 30 32
M  V30 END BOND
M  V30 BEGIN COLLECTION
M  V30 MDLV30/STEABS ATOMS=(1 20)
M  V30 END COLLECTION
M  V30 END CTAB
M  END
>  <Column 1>
371

>  <Column 2>
PandemicResponseBox - Plate E

>  <Column 3>
C08

>  <Column 4>
MMV658803

>  <Column 5>
10 mM

>  <Column 6>
ANTIVIRALS

>  <Column 7>


>  <Column 8>
None

>  <Column 9>
Tipifarnib

>  <Column 10>
ClC1=CC(=CC=C1)C2=C[C](=O)[N](C5=C2C=C([C@](N)(C3=CC=C(Cl)C=C3)C4=CN=C[N]4C)C=C5)C

>  <Column 11>
CHEMBL289228

>  <Column 12>


>  <Column 13>
489.4

>  <Column 14>
C27H22Cl2N4O

>  <Tox-Glu>
ATCTOX

>  <Column 15>


>  <Column 16>
56 

>  <Column 17>
1 

>  <Column 18>
1 

>  <Column 19>


>  <Tox-Gal>
CTOXGAL

>  <Column 20>


>  <Column 21>
57 

>  <Column 22>
1 

>  <Column 23>
1 

>  <Column 24>


>  <Column 25>


>  <PAMPA>
PAMPA

>  <Column 26>
303

>  <Column 27>


>  <Column 28>


>  <Mouse>
ATMETMOU

>  <Column 29>
370

>  <Column 30>


$$$$
Compound 373
Actelion Java MolfileCreator 2.0

  0  0  0  0  0  0              0 V3000
M  V30 BEGIN CTAB
M  V30 COUNTS 17 19 0 0 0
M  V30 BEGIN ATOM
M  V30 1 O 0.866 0.0 0.0 0
M  V30 2 C 0.0 -0.5 0.0 0
M  V30 3 C -0.866 0.0 0.0 0
M  V30 4 C 0.0 -1.4999 0.0 0
M  V30 5 C -0.866 1.0 0.0 0
M  V30 6 C -1.732 -0.4999 0.0 0
M  V30 7 C -0.866 -1.9999 0.0 0
M  V30 8 C 0.866 -1.9999 0.0 0
M  V30 9 O 0.0 1.5 0.0 0
M  V30 10 C -1.732 1.5 0.0 0
M  V30 11 N -1.732 -1.4999 0.0 0
M  V30 12 C -2.598 0.0 0.0 0
M  V30 13 C -0.866 -2.9999 0.0 0
M  V30 14 C 0.866 -3.0 0.0 0
M  V30 15 C -2.598 1.0 0.0 0
M  V30 16 C -2.598 -1.9999 0.0 0
M  V30 17 C 0.0 -3.4999 0.0 0
M  V30 END ATOM
M  V30 BEGIN BOND
M  V30 1 2 1 2
M  V30 2 1 2 3
M  V30 3 1 2 4
M  V30 4 2 3 5
M  V30 5 1 3 6
M  V30 6 2 4 7
M  V30 7 1 4 8
M  V30 8 1 5 9
M  V30 9 1 5 10
M  V30 10 1 6 11
M  V30 11 2 6 12
M  V30 12 1 7 13
M  V30 13 2 8 14
M  V30 14 2 10 15
M  V30 15 1 11 16
M  V30 16 2 13 17
M  V30 17 1 7 11
M  V30 18 1 12 15
M  V30 19 1 14 17
M  V30 END BOND
M  V30 END CTAB
M  END
>  <Column 1>
372

>  <Column 2>
PandemicResponseBox - Plate E

>  <Column 3>
D08

>  <Column 4>
MMV1580500

>  <Column 5>
10 mM

>  <Column 6>
ANTIVIRALS

>  <Column 7>


>  <Column 8>
None

>  <Column 9>
1-Hydroxy-10-methylacridone

>  <Column 10>
O=[C]2C1=C(O)C=CC=C1[N](C)C3=C2C=CC=C3

>  <Column 11>
CHEMBL1288799

>  <Column 12>
Antiviral Research�(1999),�43(3),�189-199,JP 11116480 A

>  <Column 13>
225.2

>  <Column 14>
C14 H11 N O2

>  <Tox-Glu>
ATCTOX

>  <Column 15>


>  <Column 16>
92 

>  <Column 17>
93 

>  <Column 18>
85 

>  <Column 19>


>  <Tox-Gal>
CTOXGAL

>  <Column 20>


>  <Column 21>
92 

>  <Column 22>
97 

>  <Column 23>
90 

>  <Column 24>


>  <Column 25>


>  <PAMPA>
PAMPA

>  <Column 26>
202

>  <Column 27>


>  <Column 28>


>  <Mouse>
ATMETMOU

>  <Column 29>
489

>  <Column 30>


$$$$
Compound 374
Actelion Java MolfileCreator 2.0

  0  0  0  0  0  0              0 V3000
M  V30 BEGIN CTAB
M  V30 COUNTS 33 36 0 0 0
M  V30 BEGIN ATOM
M  V30 1 F 14.3564 3.366 0.0 0
M  V30 2 C 13.8564 2.5 0.0 0
M  V30 3 F 14.7224 2.0 0.0 0
M  V30 4 F 13.3564 1.6339 0.0 0
M  V30 5 C 12.9903 3.0 0.0 0
M  V30 6 N 12.9903 4.0 0.0 0
M  V30 7 C 12.1243 2.5 0.0 0
M  V30 8 C 12.1243 4.5 0.0 0
M  V30 9 C 11.2583 2.9999 0.0 0
M  V30 10 C 11.2583 3.9999 0.0 0
M  V30 11 N 10.3923 4.4999 0.0 0
M  V30 12 C 9.5262 3.9999 0.0 0
M  V30 13 C 8.6602 4.4999 0.0 0
M  V30 14 C 9.5262 2.9999 0.0 0
M  V30 15 N 7.7942 3.9999 0.0 0
M  V30 16 C 8.6602 2.4999 0.0 0
M  V30 17 C 7.7942 2.9999 0.0 0
M  V30 18 C 6.9282 2.4999 0.0 0
M  V30 19 C 6.0621 2.9999 0.0 0
M  V30 20 C 6.9282 1.4999 0.0 0
M  V30 21 C 5.1961 2.4999 0.0 0
M  V30 22 C 6.0621 1.0 0.0 0
M  V30 23 C 5.1961 1.5 0.0 0
M  V30 24 C 4.3301 1.0 0.0 0 CFG=1
M  V30 25 C 3.4641 1.5 0.0 0
M  V30 26 C 4.3301 0.0 0.0 0
M  V30 27 C 2.598 0.9999 0.0 0
M  V30 28 C 3.4641 -0.4999 0.0 0
M  V30 29 C 2.598 0.0 0.0 0 CFG=1
M  V30 30 C 1.732 -0.5 0.0 0
M  V30 31 C 0.866 0.0 0.0 0
M  V30 32 O 0.866 1.0 0.0 0
M  V30 33 O 0.0 -0.5 0.0 0
M  V30 END ATOM
M  V30 BEGIN BOND
M  V30 1 1 1 2
M  V30 2 1 2 3
M  V30 3 1 2 4
M  V30 4 1 2 5
M  V30 5 2 5 6
M  V30 6 1 5 7
M  V30 7 1 6 8
M  V30 8 2 7 9
M  V30 9 2 8 10
M  V30 10 1 10 11
M  V30 11 1 11 12
M  V30 12 2 12 13
M  V30 13 1 12 14
M  V30 14 1 13 15
M  V30 15 2 14 16
M  V30 16 2 15 17
M  V30 17 1 17 18
M  V30 18 2 18 19
M  V30 19 1 18 20
M  V30 20 1 19 21
M  V30 21 2 20 22
M  V30 22 2 21 23
M  V30 23 1 24 23 CFG=3
M  V30 24 1 24 25
M  V30 25 1 24 26
M  V30 26 1 25 27
M  V30 27 1 26 28
M  V30 28 1 29 27
M  V30 29 1 29 30 CFG=1
M  V30 30 1 30 31
M  V30 31 2 31 32
M  V30 32 1 31 33
M  V30 33 1 9 10
M  V30 34 1 16 17
M  V30 35 1 22 23
M  V30 36 1 28 29
M  V30 END BOND
M  V30 BEGIN COLLECTION
M  V30 MDLV30/STEABS ATOMS=(2 24 29)
M  V30 END COLLECTION
M  V30 END CTAB
M  END
>  <Column 1>
373

>  <Column 2>
PandemicResponseBox - Plate E

>  <Column 3>
E08

>  <Column 4>
MMV1580498

>  <Column 5>
10 mM

>  <Column 6>
ANTIVIRALS

>  <Column 7>


>  <Column 8>
None

>  <Column 9>
Pradigastat

>  <Column 10>
FC(F)(F)C4=NC=C(NC3=CN=C(C2=CC=C([C@H]1CC[C@H](CC(=O)O)CC1)C=C2)C=C3)C=C4

>  <Column 11>
CHEMBL2364624

>  <Column 12>
WO-2007126957

>  <Column 13>
455.5

>  <Column 14>
C25 H24 F3 N3 O2

>  <Tox-Glu>
ATCTOX

>  <Column 15>


>  <Column 16>
105 

>  <Column 17>
92 

>  <Column 18>
29 

>  <Column 19>


>  <Tox-Gal>
CTOXGAL

>  <Column 20>


>  <Column 21>
100 

>  <Column 22>
89 

>  <Column 23>
3 

>  <Column 24>


>  <Column 25>


>  <PAMPA>
PAMPA

>  <Column 26>
256

>  <Column 27>


>  <Column 28>


>  <Mouse>
ATMETMOU

>  <Column 29>
-8

>  <Column 30>


$$$$
Compound 375
Actelion Java MolfileCreator 2.0

  0  0  0  0  0  0              0 V3000
M  V30 BEGIN CTAB
M  V30 COUNTS 26 28 0 0 0
M  V30 BEGIN ATOM
M  V30 1 O 6.0621 0.0 0.0 0
M  V30 2 C 5.1961 -0.5 0.0 0
M  V30 3 N 4.3301 0.0 0.0 0
M  V30 4 C 5.1961 -1.4999 0.0 0
M  V30 5 C 3.4641 -0.5 0.0 0
M  V30 6 C 4.3301 -1.9999 0.0 0
M  V30 7 C 6.0621 -2.0 0.0 0
M  V30 8 C 2.598 0.0 0.0 0
M  V30 9 C 4.3301 -2.9999 0.0 0
M  V30 10 C 6.0621 -3.0 0.0 0
M  V30 11 C 1.732 -0.5 0.0 0
M  V30 12 C 5.1961 -3.5 0.0 0
M  V30 13 N 0.866 0.0 0.0 0
M  V30 14 C 5.1961 -4.5 0.0 0
M  V30 15 C 0.866 1.0 0.0 0
M  V30 16 C 0.0 -0.5 0.0 0
M  V30 17 C 4.3301 -4.9999 0.0 0
M  V30 18 C 6.0621 -5.0 0.0 0
M  V30 19 C 4.3301 -5.9999 0.0 0
M  V30 20 C 6.0621 -6.0 0.0 0
M  V30 21 O 3.4641 -6.4999 0.0 0
M  V30 22 C 5.1961 -6.5 0.0 0
M  V30 23 C 6.9282 -6.5 0.0 0
M  V30 24 N 5.1961 -7.5 0.0 0
M  V30 25 C 6.9282 -7.5 0.0 0
M  V30 26 C 6.0621 -8.0 0.0 0
M  V30 END ATOM
M  V30 BEGIN BOND
M  V30 1 2 1 2
M  V30 2 1 2 3
M  V30 3 1 2 4
M  V30 4 1 3 5
M  V30 5 2 4 6
M  V30 6 1 4 7
M  V30 7 1 5 8
M  V30 8 1 6 9
M  V30 9 2 7 10
M  V30 10 1 8 11
M  V30 11 2 9 12
M  V30 12 1 11 13
M  V30 13 1 12 14
M  V30 14 1 13 15
M  V30 15 1 13 16
M  V30 16 1 14 17
M  V30 17 2 14 18
M  V30 18 2 17 19
M  V30 19 1 18 20
M  V30 20 1 19 21
M  V30 21 1 19 22
M  V30 22 2 20 23
M  V30 23 2 22 24
M  V30 24 1 23 25
M  V30 25 1 24 26
M  V30 26 1 10 12
M  V30 27 1 20 22
M  V30 28 2 25 26
M  V30 END BOND
M  V30 END CTAB
M  END
>  <Column 1>
374

>  <Column 2>
PandemicResponseBox - Plate E

>  <Column 3>
F08

>  <Column 4>
MMV1580488

>  <Column 5>
10 mM

>  <Column 6>
ANTIVIRALS

>  <Column 7>


>  <Column 8>
None

>  <Column 9>
ML 324

>  <Column 10>
O=C(NCCCN(C)C)C3=CC=C(C2=CC1=CC=CN=C1C(=C2)O)C=C3

>  <Column 11>
CHEMBL1398529

>  <Column 12>
WO-2012012627

>  <Column 13>
349.4

>  <Column 14>
C21 H23 N3 O2

>  <Tox-Glu>
ATCTOX

>  <Column 15>


>  <Column 16>
89 

>  <Column 17>
38 

>  <Column 18>
1 

>  <Column 19>


>  <Tox-Gal>
CTOXGAL

>  <Column 20>


>  <Column 21>
95 

>  <Column 22>
55 

>  <Column 23>
1 

>  <Column 24>


>  <Column 25>


>  <PAMPA>
PAMPA

>  <Column 26>
282

>  <Column 27>


>  <Column 28>


>  <Mouse>
ATMETMOU

>  <Column 29>


>  <Column 30>
Not determined; Broad peak

$$$$
Compound 376
Actelion Java MolfileCreator 2.0

  0  0  0  0  0  0              0 V3000
M  V30 BEGIN CTAB
M  V30 COUNTS 27 29 0 0 0
M  V30 BEGIN ATOM
M  V30 1 S 6.0412 -0.7318 0.0 0
M  V30 2 O 6.1458 -1.7264 0.0 0
M  V30 3 O 5.9367 0.2626 0.0 0
M  V30 4 N 7.0358 -0.6273 0.0 0
M  V30 5 C 5.0467 -0.8364 0.0 0
M  V30 6 S 4.3776 -0.0932 0.0 0
M  V30 7 C 4.5467 -1.7024 0.0 0
M  V30 8 C 3.4641 -0.5 0.0 0
M  V30 9 N 3.5686 -1.4945 0.0 0
M  V30 10 C 4.9535 -2.6159 0.0 0
M  V30 11 N 2.598 0.0 0.0 0
M  V30 12 C 1.732 -0.5 0.0 0
M  V30 13 C 2.598 1.0 0.0 0
M  V30 14 O 1.732 -1.5 0.0 0
M  V30 15 C 0.866 0.0 0.0 0
M  V30 16 C 0.0 -0.5 0.0 0
M  V30 17 C -0.866 0.0 0.0 0
M  V30 18 C 0.0 -1.4999 0.0 0
M  V30 19 C -1.732 -0.4999 0.0 0
M  V30 20 C -0.866 -1.9999 0.0 0
M  V30 21 C -1.732 -1.4999 0.0 0
M  V30 22 C -2.598 -1.9999 0.0 0
M  V30 23 N -3.4641 -1.4999 0.0 0
M  V30 24 C -2.598 -2.9999 0.0 0
M  V30 25 C -4.3301 -1.9999 0.0 0
M  V30 26 C -3.4641 -3.4999 0.0 0
M  V30 27 C -4.3301 -2.9999 0.0 0
M  V30 END ATOM
M  V30 BEGIN BOND
M  V30 1 2 1 2
M  V30 2 2 1 3
M  V30 3 1 1 4
M  V30 4 1 1 5
M  V30 5 1 5 6
M  V30 6 2 5 7
M  V30 7 1 6 8
M  V30 8 1 7 9
M  V30 9 1 7 10
M  V30 10 1 8 11
M  V30 11 1 11 12
M  V30 12 1 11 13
M  V30 13 2 12 14
M  V30 14 1 12 15
M  V30 15 1 15 16
M  V30 16 2 16 17
M  V30 17 1 16 18
M  V30 18 1 17 19
M  V30 19 2 18 20
M  V30 20 2 19 21
M  V30 21 1 21 22
M  V30 22 2 22 23
M  V30 23 1 22 24
M  V30 24 1 23 25
M  V30 25 2 24 26
M  V30 26 2 25 27
M  V30 27 2 8 9
M  V30 28 1 20 21
M  V30 29 1 26 27
M  V30 END BOND
M  V30 END CTAB
M  END
>  <Column 1>
375

>  <Column 2>
PandemicResponseBox - Plate E

>  <Column 3>
G08

>  <Column 4>
MMV1580486

>  <Column 5>
10 mM

>  <Column 6>
ANTIVIRALS

>  <Column 7>


>  <Column 8>
None

>  <Column 9>
Pritelivir

>  <Column 10>
[S](=O)(=O)(N)C1=C(N=C(S1)N(C(=O)CC3=CC=C(C2=NC=CC=C2)C=C3)C)C

>  <Column 11>
NA

>  <Column 12>
Antiviral Chemistry & Chemotherapy (2007), 18(1), 35-48; WO 2006103011 

>  <Column 13>
402.5

>  <Column 14>
C18 H18 N4 O3 S2

>  <Tox-Glu>
ATCTOX

>  <Column 15>


>  <Column 16>
102 

>  <Column 17>
102 

>  <Column 18>
96 

>  <Column 19>


>  <Tox-Gal>
CTOXGAL

>  <Column 20>


>  <Column 21>
98 

>  <Column 22>
97 

>  <Column 23>
91 

>  <Column 24>


>  <Column 25>


>  <PAMPA>
PAMPA

>  <Column 26>
283

>  <Column 27>


>  <Column 28>


>  <Mouse>
ATMETMOU

>  <Column 29>
17

>  <Column 30>


$$$$
Compound 377
Actelion Java MolfileCreator 2.0

  0  0  0  0  0  0              0 V3000
M  V30 BEGIN CTAB
M  V30 COUNTS 37 42 0 0 0
M  V30 BEGIN ATOM
M  V30 1 Cl 7.5153 -3.0574 0.0 0
M  V30 2 C 6.689 -2.4941 0.0 0
M  V30 3 C 5.7881 -2.928 0.0 0
M  V30 4 C 6.7638 -1.4969 0.0 0
M  V30 5 C 4.9618 -2.3647 0.0 0
M  V30 6 C 5.9375 -0.9336 0.0 0
M  V30 7 N 4.1356 -2.928 0.0 0
M  V30 8 C 5.0366 -1.3675 0.0 0
M  V30 9 C 3.18 -2.6333 0.0 0
M  V30 10 C 4.2846 -3.9168 0.0 0
M  V30 11 N 4.3035 -0.6873 0.0 0
M  V30 12 O 2.4998 -3.3663 0.0 0
M  V30 13 C 2.8147 -1.7024 0.0 0
M  V30 14 C 3.5028 -4.5403 0.0 0
M  V30 15 C 5.2155 -4.2822 0.0 0
M  V30 16 C 3.3147 -0.8364 0.0 0
M  V30 17 C 4.5983 0.2682 0.0 0
M  V30 18 C 1.8365 -1.4945 0.0 0
M  V30 19 C 3.6518 -5.5292 0.0 0
M  V30 20 C 5.3645 -5.271 0.0 0
M  V30 21 N 2.6455 -0.0932 0.0 0
M  V30 22 N 1.732 -0.5 0.0 0
M  V30 23 C 4.5827 -5.8945 0.0 0
M  V30 24 C 0.866 0.0 0.0 0
M  V30 25 C 0.0 -0.5 0.0 0
M  V30 26 C -0.866 0.0 0.0 0
M  V30 27 C 0.0 -1.4999 0.0 0
M  V30 28 C -1.732 -0.4999 0.0 0
M  V30 29 C -0.866 -1.9999 0.0 0
M  V30 30 C -1.732 -1.4999 0.0 0
M  V30 31 C -2.598 -1.9999 0.0 0
M  V30 32 N -2.598 -2.9999 0.0 0
M  V30 33 C -3.4641 -3.4999 0.0 0
M  V30 34 C -1.732 -3.4999 0.0 0
M  V30 35 C -3.4641 -4.4999 0.0 0
M  V30 36 C -1.732 -4.4999 0.0 0
M  V30 37 O -2.598 -4.9999 0.0 0
M  V30 END ATOM
M  V30 BEGIN BOND
M  V30 1 1 1 2
M  V30 2 2 2 3
M  V30 3 1 2 4
M  V30 4 1 3 5
M  V30 5 2 4 6
M  V30 6 1 5 7
M  V30 7 2 5 8
M  V30 8 1 7 9
M  V30 9 1 7 10
M  V30 10 1 8 11
M  V30 11 2 9 12
M  V30 12 1 9 13
M  V30 13 2 10 14
M  V30 14 1 10 15
M  V30 15 1 11 16
M  V30 16 1 11 17
M  V30 17 2 13 18
M  V30 18 1 14 19
M  V30 19 2 15 20
M  V30 20 2 16 21
M  V30 21 1 18 22
M  V30 22 2 19 23
M  V30 23 1 22 24
M  V30 24 1 24 25
M  V30 25 2 25 26
M  V30 26 1 25 27
M  V30 27 1 26 28
M  V30 28 2 27 29
M  V30 29 2 28 30
M  V30 30 1 30 31
M  V30 31 1 31 32
M  V30 32 1 32 33
M  V30 33 1 32 34
M  V30 34 1 33 35
M  V30 35 1 34 36
M  V30 36 1 35 37
M  V30 37 1 6 8
M  V30 38 1 13 16
M  V30 39 1 20 23
M  V30 40 1 21 22
M  V30 41 1 29 30
M  V30 42 1 36 37
M  V30 END BOND
M  V30 END CTAB
M  END
>  <Column 1>
376

>  <Column 2>
PandemicResponseBox - Plate E

>  <Column 3>
H08

>  <Column 4>
MMV1782222

>  <Column 5>
10 mM

>  <Column 6>
ANTIVIRALS

>  <Column 7>


>  <Column 8>
None

>  <Column 9>


>  <Column 10>
CN1c2ccc(Cl)cc2N(C(=O)c3cn(Cc4ccc(CN5CCOCC5)cc4)nc13)c6ccccc6

>  <Column 11>
CHEMBL1642530

>  <Column 12>


>  <Column 13>
514

>  <Column 14>
C29 H28 Cl N5 O2

>  <Tox-Glu>
ATCTOX

>  <Column 15>


>  <Column 16>
83 

>  <Column 17>
50 

>  <Column 18>
43 

>  <Column 19>


>  <Tox-Gal>
CTOXGAL

>  <Column 20>


>  <Column 21>
96 

>  <Column 22>
2 

>  <Column 23>
2 

>  <Column 24>


>  <Column 25>


>  <PAMPA>
PAMPA

>  <Column 26>
409

>  <Column 27>


>  <Column 28>


>  <Mouse>
ATMETMOU

>  <Column 29>
148

>  <Column 30>


$$$$
Compound 378
Actelion Java MolfileCreator 2.0

  0  0  0  0  0  0              0 V3000
M  V30 BEGIN CTAB
M  V30 COUNTS 28 30 0 0 0
M  V30 BEGIN ATOM
M  V30 1 Cl 12.9904 -0.75 0.0 0
M  V30 2 C 11.6913 0.0 0.0 0
M  V30 3 C 11.6913 1.5 0.0 0
M  V30 4 C 10.3923 -0.75 0.0 0
M  V30 5 C 10.3923 2.25 0.0 0
M  V30 6 C 9.0932 0.0 0.0 0
M  V30 7 C 9.0932 1.5 0.0 0
M  V30 8 O 7.7942 2.25 0.0 0
M  V30 9 C 6.4952 1.5 0.0 0
M  V30 10 C 5.1961 2.25 0.0 0
M  V30 11 C 6.4952 0.0 0.0 0
M  V30 12 C 3.8971 1.5 0.0 0
M  V30 13 C 5.1961 -0.75 0.0 0
M  V30 14 C 3.8971 0.0 0.0 0
M  V30 15 S 2.598 -0.75 0.0 0
M  V30 16 O 1.848 -2.049 0.0 0
M  V30 17 O 3.348 -2.049 0.0 0
M  V30 18 C 1.299 0.0 0.0 0
M  V30 19 C 0.0 -0.75 0.0 0
M  V30 20 C 0.0 0.75 0.0 0
M  V30 21 C 0.0 -2.25 0.0 0
M  V30 22 C -1.299 0.0 0.0 0
M  V30 23 O 1.299 1.5 0.0 0
M  V30 24 N -1.299 1.5 0.0 0
M  V30 25 C -1.299 -3.0 0.0 0
M  V30 26 C -2.598 -0.75 0.0 0
M  V30 27 O -1.299 3.0 0.0 0
M  V30 28 O -2.598 -2.25 0.0 0
M  V30 END ATOM
M  V30 BEGIN BOND
M  V30 1 1 1 2
M  V30 2 2 2 3
M  V30 3 1 2 4
M  V30 4 1 3 5
M  V30 5 2 4 6
M  V30 6 2 5 7
M  V30 7 1 7 8
M  V30 8 1 8 9
M  V30 9 2 9 10
M  V30 10 1 9 11
M  V30 11 1 10 12
M  V30 12 2 11 13
M  V30 13 2 12 14
M  V30 14 1 14 15
M  V30 15 2 15 16
M  V30 16 2 15 17
M  V30 17 1 15 18
M  V30 18 1 18 19
M  V30 19 1 19 20
M  V30 20 1 19 21
M  V30 21 1 19 22
M  V30 22 2 20 23
M  V30 23 1 20 24
M  V30 24 1 21 25
M  V30 25 1 22 26
M  V30 26 1 24 27
M  V30 27 1 25 28
M  V30 28 1 6 7
M  V30 29 1 13 14
M  V30 30 1 26 28
M  V30 END BOND
M  V30 END CTAB
M  END
>  <Column 1>
377

>  <Column 2>
PandemicResponseBox - Plate E

>  <Column 3>
A09

>  <Column 4>
MMV690706

>  <Column 5>
10 mM

>  <Column 6>
ANTIVIRALS

>  <Column 7>


>  <Column 8>
None

>  <Column 9>
CTS 1027

>  <Column 10>
ONC(=O)C1(CS(=O)(=O)c2ccc(Oc3ccc(Cl)cc3)cc2)CCOCC1

>  <Column 11>
CHEMBL440498

>  <Column 12>
WO�2013101552

>  <Column 13>
425.9

>  <Column 14>
C19 H20 Cl N O6 S

>  <Tox-Glu>
ATCTOX

>  <Column 15>


>  <Column 16>
96 

>  <Column 17>
97 

>  <Column 18>
89 

>  <Column 19>


>  <Tox-Gal>
CTOXGAL

>  <Column 20>


>  <Column 21>
101 

>  <Column 22>
93 

>  <Column 23>
0 

>  <Column 24>


>  <Column 25>


>  <PAMPA>
PAMPA

>  <Column 26>
213

>  <Column 27>


>  <Column 28>


>  <Mouse>
ATMETMOU

>  <Column 29>
-18

>  <Column 30>


$$$$
Compound 379
Actelion Java MolfileCreator 2.0

  0  0  0  0  0  0              0 V3000
M  V30 BEGIN CTAB
M  V30 COUNTS 35 39 0 0 0
M  V30 BEGIN ATOM
M  V30 1 S 6.9282 1.5 0.0 0
M  V30 2 O 7.4282 2.366 0.0 0
M  V30 3 O 6.4282 2.366 0.0 0
M  V30 4 N 6.0621 1.0 0.0 0
M  V30 5 C 7.7942 1.0 0.0 0
M  V30 6 C 6.0621 0.0 0.0 0
M  V30 7 C 7.7942 0.0 0.0 0
M  V30 8 C 8.6602 1.5 0.0 0
M  V30 9 N 6.9282 -0.4999 0.0 0
M  V30 10 C 5.1961 -0.4999 0.0 0
M  V30 11 C 8.6602 -0.4999 0.0 0
M  V30 12 C 9.5262 1.0 0.0 0
M  V30 13 C 4.3301 0.0 0.0 0
M  V30 14 C 5.1961 -1.4999 0.0 0
M  V30 15 C 9.5262 0.0 0.0 0
M  V30 16 N 10.3923 1.5 0.0 0
M  V30 17 O 4.3301 1.0 0.0 0
M  V30 18 N 3.4641 -0.5 0.0 0
M  V30 19 O 6.0621 -1.9999 0.0 0
M  V30 20 C 4.3301 -1.9999 0.0 0 CFG=1
M  V30 21 S 10.3923 2.5 0.0 0
M  V30 22 C 3.4641 -1.5 0.0 0 CFG=2
M  V30 23 C 2.598 0.0 0.0 0
M  V30 24 C 4.1222 -2.9781 0.0 0 CFG=2
M  V30 25 O 11.3923 2.5 0.0 0
M  V30 26 O 9.3923 2.5 0.0 0
M  V30 27 C 10.3923 3.5 0.0 0
M  V30 28 C 2.7209 -2.1691 0.0 0 CFG=1
M  V30 29 C 1.732 -0.5 0.0 0
M  V30 30 C 3.1276 -3.0826 0.0 0
M  V30 31 C 3.1831 -3.9866 0.0 0
M  V30 32 C 2.3171 -3.4866 0.0 0
M  V30 33 C 0.866 0.0 0.0 0
M  V30 34 C 0.866 1.0 0.0 0
M  V30 35 C 0.0 -0.5 0.0 0
M  V30 END ATOM
M  V30 BEGIN BOND
M  V30 1 2 1 2
M  V30 2 2 1 3
M  V30 3 1 1 4
M  V30 4 1 1 5
M  V30 5 2 4 6
M  V30 6 2 5 7
M  V30 7 1 5 8
M  V30 8 1 6 9
M  V30 9 1 6 10
M  V30 10 1 7 11
M  V30 11 2 8 12
M  V30 12 1 10 13
M  V30 13 2 10 14
M  V30 14 2 11 15
M  V30 15 1 12 16
M  V30 16 2 13 17
M  V30 17 1 13 18
M  V30 18 1 14 19
M  V30 19 1 20 14 CFG=3
M  V30 20 1 16 21
M  V30 21 1 22 18 CFG=3
M  V30 22 1 18 23
M  V30 23 1 24 20
M  V30 24 2 21 25
M  V30 25 2 21 26
M  V30 26 1 21 27
M  V30 27 1 28 22
M  V30 28 1 23 29
M  V30 29 1 24 30 CFG=3
M  V30 30 1 24 31
M  V30 31 1 28 32 CFG=1
M  V30 32 1 29 33
M  V30 33 1 33 34
M  V30 34 1 33 35
M  V30 35 1 7 9
M  V30 36 1 12 15
M  V30 37 1 20 22
M  V30 38 1 28 30
M  V30 39 1 31 32
M  V30 END BOND
M  V30 BEGIN COLLECTION
M  V30 MDLV30/STEABS ATOMS=(4 20 22 24 28)
M  V30 END COLLECTION
M  V30 END CTAB
M  END
>  <Column 1>
378

>  <Column 2>
PandemicResponseBox - Plate E

>  <Column 3>
B09

>  <Column 4>
MMV1782220

>  <Column 5>
10 mM

>  <Column 6>
ANTIVIRALS

>  <Column 7>


>  <Column 8>
None

>  <Column 9>


>  <Column 10>
CC(C)CCN1[C@H]2[C@@H]3CC[C@@H](C3)[C@H]2C(=C(C1=O)C4=NS(=O)(=O)c5cc(NS(=O)(=O)C)ccc5N4)O

>  <Column 11>
CHEMBL1080267

>  <Column 12>


>  <Column 13>
522.6

>  <Column 14>
C23 H30 N4 O6 S2

>  <Tox-Glu>
ATCTOX

>  <Column 15>


>  <Column 16>
102 

>  <Column 17>
103 

>  <Column 18>
82 

>  <Column 19>


>  <Tox-Gal>
CTOXGAL

>  <Column 20>


>  <Column 21>
102 

>  <Column 22>
102 

>  <Column 23>
75 

>  <Column 24>


>  <Column 25>


>  <PAMPA>
PAMPA

>  <Column 26>
185

>  <Column 27>


>  <Column 28>


>  <Mouse>
ATMETMOU

>  <Column 29>
15

>  <Column 30>


$$$$
Compound 380
Actelion Java MolfileCreator 2.0

  0  0  0  0  0  0              0 V3000
M  V30 BEGIN CTAB
M  V30 COUNTS 34 38 0 0 0
M  V30 BEGIN ATOM
M  V30 1 Br 6.9073 0.2318 0.0 0
M  V30 2 C 5.9128 0.3364 0.0 0
M  V30 3 N 5.4128 1.2024 0.0 0
M  V30 4 N 5.2436 -0.4067 0.0 0
M  V30 5 N 4.4346 0.9945 0.0 0
M  V30 6 C 5.4515 -1.3848 0.0 0
M  V30 7 C 4.3301 0.0 0.0 0
M  V30 8 C 4.7084 -2.054 0.0 0
M  V30 9 C 6.4026 -1.6939 0.0 0
M  V30 10 S 3.4641 -0.5 0.0 0
M  V30 11 C 4.9163 -3.0321 0.0 0
M  V30 12 C 3.7573 -1.7449 0.0 0
M  V30 13 C 6.6105 -2.672 0.0 0
M  V30 14 C 2.598 0.0 0.0 0
M  V30 15 C 5.8674 -3.3411 0.0 0
M  V30 16 C 4.1732 -3.7012 0.0 0
M  V30 17 C 3.0142 -2.4141 0.0 0
M  V30 18 C 1.732 -0.5 0.0 0
M  V30 19 C 6.0753 -4.3193 0.0 0
M  V30 20 C 3.2221 -3.3922 0.0 0
M  V30 21 O 1.732 -1.5 0.0 0
M  V30 22 N 0.866 0.0 0.0 0
M  V30 23 C 5.7663 -5.2703 0.0 0
M  V30 24 C 6.7444 -5.0624 0.0 0
M  V30 25 C 0.0 -0.5 0.0 0
M  V30 26 C -0.866 0.0 0.0 0
M  V30 27 C 0.0 -1.4999 0.0 0
M  V30 28 Cl -0.866 1.0 0.0 0
M  V30 29 C -1.732 -0.4999 0.0 0
M  V30 30 C -0.866 -1.9999 0.0 0
M  V30 31 C -1.732 -1.4999 0.0 0
M  V30 32 C -2.598 -1.9999 0.0 0
M  V30 33 O -3.4641 -1.4999 0.0 0
M  V30 34 O -2.598 -2.9999 0.0 0
M  V30 END ATOM
M  V30 BEGIN BOND
M  V30 1 1 1 2
M  V30 2 2 2 3
M  V30 3 1 2 4
M  V30 4 1 3 5
M  V30 5 1 4 6
M  V30 6 1 4 7
M  V30 7 1 6 8
M  V30 8 2 6 9
M  V30 9 1 7 10
M  V30 10 1 8 11
M  V30 11 2 8 12
M  V30 12 1 9 13
M  V30 13 1 10 14
M  V30 14 1 11 15
M  V30 15 2 11 16
M  V30 16 1 12 17
M  V30 17 1 14 18
M  V30 18 1 15 19
M  V30 19 1 16 20
M  V30 20 2 18 21
M  V30 21 1 18 22
M  V30 22 1 19 23
M  V30 23 1 19 24
M  V30 24 1 22 25
M  V30 25 2 25 26
M  V30 26 1 25 27
M  V30 27 1 26 28
M  V30 28 1 26 29
M  V30 29 2 27 30
M  V30 30 2 29 31
M  V30 31 1 31 32
M  V30 32 2 32 33
M  V30 33 1 32 34
M  V30 34 2 5 7
M  V30 35 2 13 15
M  V30 36 2 17 20
M  V30 37 1 23 24
M  V30 38 1 30 31
M  V30 END BOND
M  V30 END CTAB
M  END
>  <Column 1>
379

>  <Column 2>
PandemicResponseBox - Plate E

>  <Column 3>
C09

>  <Column 4>
MMV1782213

>  <Column 5>
10 mM

>  <Column 6>
ANTIVIRALS

>  <Column 7>


>  <Column 8>
None

>  <Column 9>
RDEA 806

>  <Column 10>
OC(=O)c1ccc(NC(=O)CSc2nnc(Br)n2c3ccc(C4CC4)c5ccccc35)c(Cl)c1

>  <Column 11>
CHEMBL1630216

>  <Column 12>
European Journal of Medicinal Chemistry�(2015),�102,�167-179.

>  <Column 13>
557.8

>  <Column 14>
C24 H18 Br Cl N4 O3 S

>  <Tox-Glu>
ATCTOX

>  <Column 15>


>  <Column 16>
106 

>  <Column 17>
99 

>  <Column 18>
75 

>  <Column 19>


>  <Tox-Gal>
CTOXGAL

>  <Column 20>


>  <Column 21>
103 

>  <Column 22>
102 

>  <Column 23>
66 

>  <Column 24>


>  <Column 25>


>  <PAMPA>
PAMPA

>  <Column 26>
94

>  <Column 27>


>  <Column 28>


>  <Mouse>
ATMETMOU

>  <Column 29>
>768

>  <Column 30>
Low sensitivity

$$$$
Compound 381
Actelion Java MolfileCreator 2.0

  0  0  0  0  0  0              0 V3000
M  V30 BEGIN CTAB
M  V30 COUNTS 45 48 0 0 0
M  V30 BEGIN ATOM
M  V30 1 S 7.7942 -0.75 0.0 0
M  V30 2 O 7.0442 -2.049 0.0 0
M  V30 3 O 8.5442 -2.049 0.0 0
M  V30 4 N 6.4951 0.0 0.0 0
M  V30 5 C 9.0932 0.0 0.0 0
M  V30 6 C 5.1961 -0.75 0.0 0
M  V30 7 C 6.4951 1.5 0.0 0
M  V30 8 C 10.3923 -0.75 0.0 0
M  V30 9 C 9.0932 1.5 0.0 0
M  V30 10 C 3.8971 0.0 0.0 0 CFG=2
M  V30 11 C 11.6913 0.0 0.0 0
M  V30 12 C 10.3923 2.25 0.0 0
M  V30 13 C 3.8971 1.5 0.0 0
M  V30 14 C 2.598 -0.75 0.0 0
M  V30 15 C 3.8971 -1.5 0.0 0
M  V30 16 C 11.6913 1.5 0.0 0
M  V30 17 C 5.1961 2.25 0.0 0
M  V30 18 C 2.598 2.25 0.0 0
M  V30 19 C 1.299 0.0 0.0 0
M  V30 20 C 5.1961 3.75 0.0 0
M  V30 21 C 2.598 3.75 0.0 0
M  V30 22 N 0.0 -0.75 0.0 0
M  V30 23 C 3.8971 4.5 0.0 0
M  V30 24 C -1.299 0.0 0.0 0
M  V30 25 C 0.0 -2.25 0.0 0
M  V30 26 C -2.598 -0.75 0.0 0
M  V30 27 C -1.299 -3.0 0.0 0
M  V30 28 C -2.598 -2.25 0.0 0
M  V30 29 N -3.8971 -3.0 0.0 0
M  V30 30 C -3.8971 -4.5 0.0 0
M  V30 31 C -5.1961 -2.25 0.0 0
M  V30 32 O -5.1961 -5.25 0.0 0
M  V30 33 O -2.598 -5.25 0.0 0
M  V30 34 C -5.1961 -0.75 0.0 0
M  V30 35 C -2.598 -6.75 0.0 0
M  V30 36 C -6.4951 0.0 0.0 0
M  V30 37 C -1.299 -7.5 0.0 0
M  V30 38 C -1.299 -9.0 0.0 0
M  V30 39 C 0.0 -6.75 0.0 0
M  V30 40 C 0.0 -9.75 0.0 0
M  V30 41 C 1.299 -7.5 0.0 0
M  V30 42 C 1.299 -9.0 0.0 0
M  V30 43 N 2.598 -9.75 0.0 0 CHG=1 VAL=5
M  V30 44 O 2.598 -11.25 0.0 0
M  V30 45 O 3.8971 -9.0 0.0 0 CHG=-1
M  V30 END ATOM
M  V30 BEGIN BOND
M  V30 1 2 1 2
M  V30 2 2 1 3
M  V30 3 1 1 4
M  V30 4 1 1 5
M  V30 5 1 4 6
M  V30 6 1 4 7
M  V30 7 2 5 8
M  V30 8 1 5 9
M  V30 9 1 10 6
M  V30 10 1 8 11
M  V30 11 2 9 12
M  V30 12 1 10 13
M  V30 13 1 10 14
M  V30 14 1 10 15 CFG=3
M  V30 15 2 11 16
M  V30 16 2 13 17
M  V30 17 1 13 18
M  V30 18 1 14 19
M  V30 19 1 17 20
M  V30 20 2 18 21
M  V30 21 1 19 22
M  V30 22 2 20 23
M  V30 23 1 22 24
M  V30 24 1 22 25
M  V30 25 1 24 26
M  V30 26 1 25 27
M  V30 27 1 26 28
M  V30 28 1 28 29
M  V30 29 1 29 30
M  V30 30 1 29 31
M  V30 31 2 30 32
M  V30 32 1 30 33
M  V30 33 1 31 34
M  V30 34 1 33 35
M  V30 35 2 34 36
M  V30 36 1 35 37
M  V30 37 2 37 38
M  V30 38 1 37 39
M  V30 39 1 38 40
M  V30 40 2 39 41
M  V30 41 2 40 42
M  V30 42 1 42 43
M  V30 43 2 43 44
M  V30 44 1 43 45
M  V30 45 1 12 16
M  V30 46 1 21 23
M  V30 47 1 27 28
M  V30 48 1 41 42
M  V30 END BOND
M  V30 BEGIN COLLECTION
M  V30 MDLV30/STEABS ATOMS=(1 10)
M  V30 END COLLECTION
M  V30 END CTAB
M  END
>  <Column 1>
380

>  <Column 2>
PandemicResponseBox - Plate E

>  <Column 3>
D09

>  <Column 4>
MMV1782214

>  <Column 5>
10 mM

>  <Column 6>
ANTIVIRALS

>  <Column 7>


>  <Column 8>
None

>  <Column 9>


>  <Column 10>
CN(C[C@@](C)(CCN1CCC(CC1)N(CC=C)C(=O)OCC2=CC=C(C=C2)[N](=O)=O)C3=CC=CC=C3)[S](=O)(=O)C4=CC=CC=C4

>  <Column 11>
CHEMBL93139

>  <Column 12>


>  <Column 13>
634.8

>  <Column 14>
C34 H42 N4 O6 S

>  <Tox-Glu>
ATCTOX

>  <Column 15>


>  <Column 16>
92 

>  <Column 17>
74 

>  <Column 18>
51 

>  <Column 19>


>  <Tox-Gal>
CTOXGAL

>  <Column 20>


>  <Column 21>
67 

>  <Column 22>
12 

>  <Column 23>
2 

>  <Column 24>


>  <Column 25>


>  <PAMPA>
PAMPA

>  <Column 26>
73

>  <Column 27>


>  <Column 28>


>  <Mouse>
ATMETMOU

>  <Column 29>
464

>  <Column 30>


$$$$
Compound 382
Actelion Java MolfileCreator 2.0

  0  0  0  0  0  0              0 V3000
M  V30 BEGIN CTAB
M  V30 COUNTS 33 37 0 0 0
M  V30 BEGIN ATOM
M  V30 1 F 6.0621 -1.9999 0.0 0
M  V30 2 C 5.1961 -1.4999 0.0 0
M  V30 3 C 5.1961 -0.5 0.0 0
M  V30 4 C 4.3301 -1.9999 0.0 0
M  V30 5 C 4.3301 0.0 0.0 0
M  V30 6 C 3.4641 -1.5 0.0 0
M  V30 7 C 3.4641 -0.5 0.0 0
M  V30 8 C 2.598 0.0 0.0 0 CFG=2
M  V30 9 N 1.732 -0.5 0.0 0
M  V30 10 C 2.598 1.0 0.0 0
M  V30 11 C 0.866 0.0 0.0 0
M  V30 12 O 0.866 1.0 0.0 0
M  V30 13 C 0.0 -0.5 0.0 0
M  V30 14 C -0.866 0.0 0.0 0
M  V30 15 C 0.0 -1.4999 0.0 0
M  V30 16 C -1.732 -0.4999 0.0 0
M  V30 17 C -0.866 -1.9999 0.0 0
M  V30 18 C -2.598 0.0 0.0 0
M  V30 19 C -1.732 -1.4999 0.0 0
M  V30 20 N -2.7026 0.9945 0.0 0
M  V30 21 C -3.5116 -0.4067 0.0 0
M  V30 22 C -3.6807 1.2024 0.0 0
M  V30 23 N -4.1807 0.3364 0.0 0
M  V30 24 C -4.0874 2.1159 0.0 0
M  V30 25 N -3.4997 2.9249 0.0 0
M  V30 26 C -5.082 2.2205 0.0 0
M  V30 27 C -3.9064 3.8385 0.0 0
M  V30 28 C -5.4887 3.134 0.0 0
M  V30 29 C -4.9009 3.943 0.0 0
M  V30 30 C -6.4832 3.2385 0.0 0
M  V30 31 C -5.3076 4.8566 0.0 0
M  V30 32 C -6.89 4.1521 0.0 0
M  V30 33 C -6.3022 4.9611 0.0 0
M  V30 END ATOM
M  V30 BEGIN BOND
M  V30 1 1 1 2
M  V30 2 2 2 3
M  V30 3 1 2 4
M  V30 4 1 3 5
M  V30 5 2 4 6
M  V30 6 2 5 7
M  V30 7 1 8 7
M  V30 8 1 8 9 CFG=3
M  V30 9 1 8 10
M  V30 10 1 9 11
M  V30 11 2 11 12
M  V30 12 1 11 13
M  V30 13 2 13 14
M  V30 14 1 13 15
M  V30 15 1 14 16
M  V30 16 2 15 17
M  V30 17 1 16 18
M  V30 18 2 16 19
M  V30 19 1 18 20
M  V30 20 2 18 21
M  V30 21 2 20 22
M  V30 22 1 21 23
M  V30 23 1 22 24
M  V30 24 1 24 25
M  V30 25 2 24 26
M  V30 26 2 25 27
M  V30 27 1 26 28
M  V30 28 1 27 29
M  V30 29 2 28 30
M  V30 30 2 29 31
M  V30 31 1 30 32
M  V30 32 1 31 33
M  V30 33 1 6 7
M  V30 34 1 17 19
M  V30 35 1 22 23
M  V30 36 1 28 29
M  V30 37 2 32 33
M  V30 END BOND
M  V30 BEGIN COLLECTION
M  V30 MDLV30/STEABS ATOMS=(1 8)
M  V30 END COLLECTION
M  V30 END CTAB
M  END
>  <Column 1>
381

>  <Column 2>
PandemicResponseBox - Plate E

>  <Column 3>
E09

>  <Column 4>
MMV1782211

>  <Column 5>
10 mM

>  <Column 6>
ANTIVIRALS

>  <Column 7>


>  <Column 8>
None

>  <Column 9>
TTP 8307

>  <Column 10>
C[C@@H](NC(=O)c1cccc(c1)c2c[nH]c(n2)c3cc4ccccc4cn3)c5ccc(F)cc5

>  <Column 11>
CHEMBL1163676

>  <Column 12>


>  <Column 13>
436.5

>  <Column 14>
C27 H21 F N4 O

>  <Tox-Glu>
ATCTOX

>  <Column 15>


>  <Column 16>
103 

>  <Column 17>
94 

>  <Column 18>
82 

>  <Column 19>


>  <Tox-Gal>
CTOXGAL

>  <Column 20>


>  <Column 21>
96 

>  <Column 22>
85 

>  <Column 23>
72 

>  <Column 24>


>  <Column 25>


>  <PAMPA>
PAMPA

>  <Column 26>
154

>  <Column 27>


>  <Column 28>


>  <Mouse>
ATMETMOU

>  <Column 29>
174

>  <Column 30>


$$$$
Compound 383
Actelion Java MolfileCreator 2.0

  0  0  0  0  0  0              0 V3000
M  V30 BEGIN CTAB
M  V30 COUNTS 19 21 0 0 0
M  V30 BEGIN ATOM
M  V30 1 O 4.1018 -2.8614 0.0 0
M  V30 2 C 3.1237 -2.6534 0.0 0
M  V30 3 N 2.4546 -3.3966 0.0 0
M  V30 4 C 2.8147 -1.7024 0.0 0
M  V30 5 C 1.4764 -3.1887 0.0 0
M  V30 6 N 3.3147 -0.8364 0.0 0
M  V30 7 C 1.8365 -1.4945 0.0 0
M  V30 8 N 1.1674 -2.2376 0.0 0
M  V30 9 N 0.8073 -3.9318 0.0 0
M  V30 10 C 2.6455 -0.0932 0.0 0
M  V30 11 N 1.732 -0.5 0.0 0
M  V30 12 C 0.866 0.0 0.0 0
M  V30 13 C 0.0 -0.5 0.0 0
M  V30 14 C -0.4999 -1.366 0.0 0
M  V30 15 C -0.9999 -0.5 0.0 0
M  V30 16 C -0.4999 -2.366 0.0 0
M  V30 17 C -1.4659 -1.6248 0.0 0
M  V30 18 O 0.366 -2.866 0.0 0
M  V30 19 O -2.173 -0.9177 0.0 0
M  V30 END ATOM
M  V30 BEGIN BOND
M  V30 1 2 1 2
M  V30 2 1 2 3
M  V30 3 1 2 4
M  V30 4 1 3 5
M  V30 5 1 4 6
M  V30 6 2 4 7
M  V30 7 2 5 8
M  V30 8 1 5 9
M  V30 9 2 6 10
M  V30 10 1 7 11
M  V30 11 1 11 12
M  V30 12 2 12 13
M  V30 13 1 13 14
M  V30 14 1 13 15
M  V30 15 1 14 16
M  V30 16 1 14 17
M  V30 17 1 16 18
M  V30 18 1 17 19
M  V30 19 1 7 8
M  V30 20 1 10 11
M  V30 21 1 14 15
M  V30 END BOND
M  V30 END CTAB
M  END
>  <Column 1>
382

>  <Column 2>
PandemicResponseBox - Plate E

>  <Column 3>
F09

>  <Column 4>
MMV1782210

>  <Column 5>
10 mM

>  <Column 6>
ANTIVIRALS

>  <Column 7>


>  <Column 8>
None

>  <Column 9>
Cyclopropavir

>  <Column 10>
NC1=Nc2c(ncn2\C=C/3\CC3(CO)CO)C(=O)N1

>  <Column 11>
CHEMBL265948

>  <Column 12>


>  <Column 13>
263.3

>  <Column 14>
C11 H13 N5 O3

>  <Tox-Glu>
ATCTOX

>  <Column 15>


>  <Column 16>
103 

>  <Column 17>
105 

>  <Column 18>
105 

>  <Column 19>


>  <Tox-Gal>
CTOXGAL

>  <Column 20>


>  <Column 21>
97 

>  <Column 22>
99 

>  <Column 23>
98 

>  <Column 24>


>  <Column 25>


>  <PAMPA>
PAMPA

>  <Column 26>
<8

>  <Column 27>


>  <Column 28>


>  <Mouse>
ATMETMOU

>  <Column 29>


>  <Column 30>
Not determined; Large variations

$$$$
Compound 384
Actelion Java MolfileCreator 2.0

  0  0  0  0  0  0              0 V3000
M  V30 BEGIN CTAB
M  V30 COUNTS 30 33 0 0 0
M  V30 BEGIN ATOM
M  V30 1 F 0.366 0.866 0.0 0
M  V30 2 C 0.866 0.0 0.0 0
M  V30 3 F 1.732 0.4999 0.0 0
M  V30 4 F 1.366 -0.866 0.0 0
M  V30 5 C 0.0 -0.5 0.0 0
M  V30 6 C -0.866 0.0 0.0 0
M  V30 7 C 0.0 -1.4999 0.0 0
M  V30 8 C -1.732 -0.4999 0.0 0
M  V30 9 C -0.866 -1.9999 0.0 0
M  V30 10 N -2.5138 0.1234 0.0 0
M  V30 11 C -1.732 -1.4999 0.0 0
M  V30 12 C -3.4888 -0.099 0.0 0
M  V30 13 C -2.2913 1.0984 0.0 0
M  V30 14 N -2.5138 -2.1234 0.0 0
M  V30 15 O -4.1123 0.6828 0.0 0
M  V30 16 C -3.9226 -0.9999 0.0 0 CFG=2
M  V30 17 C -1.3357 1.3931 0.0 0
M  V30 18 C -3.0244 1.7785 0.0 0
M  V30 19 C -3.4888 -1.9009 0.0 0
M  V30 20 C -2.2913 -3.0984 0.0 0
M  V30 21 C -4.9226 -0.9999 0.0 0
M  V30 22 C -1.1132 2.3681 0.0 0
M  V30 23 C -2.8018 2.7535 0.0 0
M  V30 24 O -4.1123 -2.6828 0.0 0
M  V30 25 C -5.4226 -0.1339 0.0 0
M  V30 26 C -5.4226 -1.866 0.0 0
M  V30 27 C -1.8463 3.0482 0.0 0
M  V30 28 C -6.4226 -0.1339 0.0 0
M  V30 29 C -6.4226 -1.866 0.0 0
M  V30 30 C -6.9226 -0.9999 0.0 0
M  V30 END ATOM
M  V30 BEGIN BOND
M  V30 1 1 1 2
M  V30 2 1 2 3
M  V30 3 1 2 4
M  V30 4 1 2 5
M  V30 5 2 5 6
M  V30 6 1 5 7
M  V30 7 1 6 8
M  V30 8 2 7 9
M  V30 9 1 8 10
M  V30 10 2 8 11
M  V30 11 1 10 12
M  V30 12 1 10 13
M  V30 13 1 11 14
M  V30 14 2 12 15
M  V30 15 1 16 12
M  V30 16 2 13 17
M  V30 17 1 13 18
M  V30 18 1 14 19
M  V30 19 1 14 20
M  V30 20 1 16 21 CFG=3
M  V30 21 1 17 22
M  V30 22 2 18 23
M  V30 23 2 19 24
M  V30 24 2 21 25
M  V30 25 1 21 26
M  V30 26 2 22 27
M  V30 27 1 25 28
M  V30 28 2 26 29
M  V30 29 2 28 30
M  V30 30 1 9 11
M  V30 31 1 16 19
M  V30 32 1 23 27
M  V30 33 1 29 30
M  V30 END BOND
M  V30 BEGIN COLLECTION
M  V30 MDLV30/STERAC1 ATOMS=(1 16)
M  V30 END COLLECTION
M  V30 END CTAB
M  END
>  <Column 1>
383

>  <Column 2>
PandemicResponseBox - Plate E

>  <Column 3>
G09

>  <Column 4>
MMV1782208

>  <Column 5>
10 mM

>  <Column 6>
ANTIVIRALS

>  <Column 7>


>  <Column 8>
None

>  <Column 9>


>  <Column 10>
CN1C(=O)C(C(=O)N(c2ccccc2)c3cc(ccc13)C(F)(F)F)c4ccccc4

>  <Column 11>
CHEMBL1642544

>  <Column 12>


>  <Column 13>
410.4

>  <Column 14>
C23 H17 F3 N2 O2

>  <Tox-Glu>
ATCTOX

>  <Column 15>


>  <Column 16>
103 

>  <Column 17>
103 

>  <Column 18>
100 

>  <Column 19>


>  <Tox-Gal>
CTOXGAL

>  <Column 20>


>  <Column 21>
94 

>  <Column 22>
96 

>  <Column 23>
89 

>  <Column 24>


>  <Column 25>


>  <PAMPA>
PAMPA

>  <Column 26>
307

>  <Column 27>


>  <Column 28>


>  <Mouse>
ATMETMOU

>  <Column 29>
47

>  <Column 30>


$$$$
Compound 385
Actelion Java MolfileCreator 2.0

  0  0  0  0  0  0              0 V3000
M  V30 BEGIN CTAB
M  V30 COUNTS 19 21 0 0 0
M  V30 BEGIN ATOM
M  V30 1 S 1.299 1.5 0.0 0
M  V30 2 O 0.549 2.799 0.0 0
M  V30 3 O -0.2009 1.4999 0.0 0
M  V30 4 C 1.299 0.0 0.0 0
M  V30 5 C 2.598 2.25 0.0 0
M  V30 6 C 0.0 -0.75 0.0 0
M  V30 7 C 2.598 -0.75 0.0 0
M  V30 8 C 3.8971 1.5 0.0 0
M  V30 9 C 2.598 3.75 0.0 0
M  V30 10 C -1.299 0.0 0.0 0
M  V30 11 C 0.0 -2.25 0.0 0
M  V30 12 C 3.8971 0.0 0.0 0
M  V30 13 C 5.1961 2.25 0.0 0
M  V30 14 C 3.8971 4.5 0.0 0
M  V30 15 C -2.598 -0.75 0.0 0
M  V30 16 C -1.299 -3.0 0.0 0
M  V30 17 O 5.1961 -0.75 0.0 0
M  V30 18 C 5.1961 3.75 0.0 0
M  V30 19 C -2.598 -2.25 0.0 0
M  V30 END ATOM
M  V30 BEGIN BOND
M  V30 1 2 1 2
M  V30 2 2 1 3
M  V30 3 1 1 4
M  V30 4 1 1 5
M  V30 5 1 4 6
M  V30 6 2 4 7
M  V30 7 2 5 8
M  V30 8 1 5 9
M  V30 9 2 6 10
M  V30 10 1 6 11
M  V30 11 1 7 12
M  V30 12 1 8 13
M  V30 13 2 9 14
M  V30 14 1 10 15
M  V30 15 2 11 16
M  V30 16 2 12 17
M  V30 17 2 13 18
M  V30 18 2 15 19
M  V30 19 1 8 12
M  V30 20 1 14 18
M  V30 21 1 16 19
M  V30 END BOND
M  V30 END CTAB
M  END
>  <Column 1>
384

>  <Column 2>
PandemicResponseBox - Plate E

>  <Column 3>
H09

>  <Column 4>
MMV1006203

>  <Column 5>
10 mM

>  <Column 6>
ANTIVIRALS

>  <Column 7>


>  <Column 8>
None

>  <Column 9>
1,1-dioxide 1-Thioflavone

>  <Column 10>
O=C1C=C(c2ccccc2)S(=O)(=O)c3ccccc13

>  <Column 11>
CHEMBL122199

>  <Column 12>


>  <Column 13>
270.3

>  <Column 14>
C15H10O3S

>  <Tox-Glu>
ATCTOX

>  <Column 15>


>  <Column 16>
36 

>  <Column 17>
1 

>  <Column 18>
1 

>  <Column 19>


>  <Tox-Gal>
CTOXGAL

>  <Column 20>


>  <Column 21>
66 

>  <Column 22>
1 

>  <Column 23>
1 

>  <Column 24>


>  <Column 25>


>  <PAMPA>
PAMPA

>  <Column 26>
undetected

>  <Column 27>
low sensitivity

>  <Column 28>


>  <Mouse>
ATMETMOU

>  <Column 29>


>  <Column 30>
Not determined; Low sensitivity

$$$$
Compound 386
Actelion Java MolfileCreator 2.0

  0  0  0  0  0  0              0 V3000
M  V30 BEGIN CTAB
M  V30 COUNTS 48 53 0 0 0
M  V30 BEGIN ATOM
M  V30 1 O 6.0621 -2.0 0.0 0
M  V30 2 C 6.9282 -1.5 0.0 0
M  V30 3 N 7.7942 -2.0 0.0 0
M  V30 4 C 6.9282 -0.5 0.0 0 CFG=1
M  V30 5 C 7.7942 -3.0 0.0 0
M  V30 6 N 6.0621 0.0 0.0 0
M  V30 7 C 7.7942 0.0 0.0 0
M  V30 8 C 6.7942 -3.0 0.0 0
M  V30 9 C 7.7942 -4.0 0.0 0
M  V30 10 C 8.7942 -3.0 0.0 0
M  V30 11 C 6.0621 0.9999 0.0 0
M  V30 12 C 5.1961 -0.5 0.0 0
M  V30 13 N 7.7942 0.9999 0.0 0
M  V30 14 C 6.9282 1.4999 0.0 0
M  V30 15 C 4.3301 0.0 0.0 0 CFG=1
M  V30 16 C 8.6602 1.4999 0.0 0
M  V30 17 O 4.3301 1.0 0.0 0
M  V30 18 C 3.4641 -0.5 0.0 0
M  V30 19 C 9.5262 0.9999 0.0 0
M  V30 20 C 2.598 0.0 0.0 0 CFG=2
M  V30 21 C 10.3923 1.4999 0.0 0
M  V30 22 C 9.5262 0.0 0.0 0
M  V30 23 C 1.732 -0.5 0.0 0
M  V30 24 C 2.598 1.0 0.0 0
M  V30 25 N 11.2583 0.9999 0.0 0
M  V30 26 C 10.3923 -0.5 0.0 0
M  V30 27 O 1.732 -1.5 0.0 0
M  V30 28 N 0.866 0.0 0.0 0
M  V30 29 C 1.732 1.5 0.0 0
M  V30 30 C 11.2583 0.0 0.0 0
M  V30 31 C 10.6002 -1.4781 0.0 0
M  V30 32 C 0.0 -0.5 0.0 0 CFG=1
M  V30 33 C 1.732 2.5 0.0 0
M  V30 34 C 0.866 1.0 0.0 0
M  V30 35 O 12.0014 -0.6691 0.0 0
M  V30 36 C 11.5947 -1.5826 0.0 0
M  V30 37 C -0.9135 -0.0932 0.0 0
M  V30 38 C -0.1045 -1.4945 0.0 0 CFG=2
M  V30 39 C 0.866 3.0 0.0 0
M  V30 40 C 0.0 1.5 0.0 0
M  V30 41 C -1.5826 -0.8364 0.0 0
M  V30 42 C -1.2225 0.8577 0.0 0
M  V30 43 O 0.6386 -2.1636 0.0 0
M  V30 44 C -1.0826 -1.7024 0.0 0
M  V30 45 C 0.0 2.5 0.0 0
M  V30 46 C -2.5608 -0.6284 0.0 0
M  V30 47 C -2.2007 1.0657 0.0 0
M  V30 48 C -2.8698 0.3225 0.0 0
M  V30 END ATOM
M  V30 BEGIN BOND
M  V30 1 2 1 2
M  V30 2 1 2 3
M  V30 3 1 4 2 CFG=1
M  V30 4 1 3 5
M  V30 5 1 4 6
M  V30 6 1 4 7
M  V30 7 1 5 8
M  V30 8 1 5 9
M  V30 9 1 5 10
M  V30 10 1 6 11
M  V30 11 1 6 12
M  V30 12 1 7 13
M  V30 13 1 11 14
M  V30 14 1 15 12
M  V30 15 1 13 16
M  V30 16 1 15 17 CFG=3
M  V30 17 1 15 18
M  V30 18 1 16 19
M  V30 19 1 20 18 CFG=3
M  V30 20 2 19 21
M  V30 21 1 19 22
M  V30 22 1 20 23
M  V30 23 1 20 24
M  V30 24 1 21 25
M  V30 25 2 22 26
M  V30 26 2 23 27
M  V30 27 1 23 28
M  V30 28 1 24 29
M  V30 29 2 25 30
M  V30 30 1 26 31
M  V30 31 1 32 28 CFG=3
M  V30 32 2 29 33
M  V30 33 1 29 34
M  V30 34 1 30 35
M  V30 35 2 31 36
M  V30 36 1 32 37
M  V30 37 1 38 32
M  V30 38 1 33 39
M  V30 39 2 34 40
M  V30 40 2 37 41
M  V30 41 1 37 42
M  V30 42 1 38 43 CFG=3
M  V30 43 1 38 44
M  V30 44 2 39 45
M  V30 45 1 41 46
M  V30 46 2 42 47
M  V30 47 2 46 48
M  V30 48 1 13 14
M  V30 49 1 26 30
M  V30 50 1 35 36
M  V30 51 1 40 45
M  V30 52 1 41 44
M  V30 53 1 47 48
M  V30 END BOND
M  V30 BEGIN COLLECTION
M  V30 MDLV30/STEABS ATOMS=(5 4 15 20 32 38)
M  V30 END COLLECTION
M  V30 END CTAB
M  END
>  <Column 1>
385

>  <Column 2>
PandemicResponseBox - Plate E

>  <Column 3>
A10

>  <Column 4>
MMV1782353

>  <Column 5>
10 mM

>  <Column 6>
ANTIVIRALS

>  <Column 7>


>  <Column 8>
None

>  <Column 9>


>  <Column 10>
CC(C)(C)NC(=O)[C@@H]1CN(Cc2cnc3occc3c2)CCN1C[C@@H](O)C[C@@H](Cc4ccccc4)C(=O)N[C@@H]5[C@H](O)Cc6ccccc56

>  <Column 11>
CHEMBL2062137

>  <Column 12>


>  <Column 13>
653.8

>  <Column 14>
C38 H47 N5 O5

>  <Tox-Glu>
ATCTOX

>  <Column 15>


>  <Column 16>
100 

>  <Column 17>
95 

>  <Column 18>
87 

>  <Column 19>


>  <Tox-Gal>
CTOXGAL

>  <Column 20>


>  <Column 21>
94 

>  <Column 22>
94 

>  <Column 23>
90 

>  <Column 24>


>  <Column 25>


>  <PAMPA>
PAMPA

>  <Column 26>
326

>  <Column 27>


>  <Column 28>


>  <Mouse>
ATMETMOU

>  <Column 29>
35

>  <Column 30>


$$$$
Compound 387
Actelion Java MolfileCreator 2.0

  0  0  0  0  0  0              0 V3000
M  V30 BEGIN CTAB
M  V30 COUNTS 23 25 0 0 0
M  V30 BEGIN ATOM
M  V30 1 O 3.5686 -1.4945 0.0 0
M  V30 2 N 4.5467 -1.7024 0.0 0
M  V30 3 C 3.4641 -0.5 0.0 0
M  V30 4 C 5.0467 -0.8364 0.0 0
M  V30 5 C 4.3776 -0.0932 0.0 0
M  V30 6 C 2.598 0.0 0.0 0
M  V30 7 C 6.0412 -0.7318 0.0 0
M  V30 8 C 1.732 -0.5 0.0 0
M  V30 9 O 0.866 0.0 0.0 0
M  V30 10 C 0.0 -0.5 0.0 0
M  V30 11 C -0.866 0.0 0.0 0
M  V30 12 C 0.0 -1.4999 0.0 0
M  V30 13 C -1.732 -0.4999 0.0 0
M  V30 14 C -0.866 1.0 0.0 0
M  V30 15 C -0.866 -1.9999 0.0 0
M  V30 16 C 0.866 -2.0 0.0 0
M  V30 17 C -1.732 -1.4999 0.0 0
M  V30 18 C -2.598 -1.9999 0.0 0
M  V30 19 N -3.5116 -1.5932 0.0 0
M  V30 20 N -2.7026 -2.9945 0.0 0
M  V30 21 N -4.1807 -2.3364 0.0 0
M  V30 22 N -3.6807 -3.2024 0.0 0
M  V30 23 C -4.0874 -4.1159 0.0 0
M  V30 END ATOM
M  V30 BEGIN BOND
M  V30 1 1 1 2
M  V30 2 1 1 3
M  V30 3 2 2 4
M  V30 4 2 3 5
M  V30 5 1 3 6
M  V30 6 1 4 7
M  V30 7 1 6 8
M  V30 8 1 8 9
M  V30 9 1 9 10
M  V30 10 2 10 11
M  V30 11 1 10 12
M  V30 12 1 11 13
M  V30 13 1 11 14
M  V30 14 2 12 15
M  V30 15 1 12 16
M  V30 16 2 13 17
M  V30 17 1 17 18
M  V30 18 1 18 19
M  V30 19 2 18 20
M  V30 20 2 19 21
M  V30 21 1 20 22
M  V30 22 1 22 23
M  V30 23 1 4 5
M  V30 24 1 15 17
M  V30 25 1 21 22
M  V30 END BOND
M  V30 END CTAB
M  END
>  <Column 1>
386

>  <Column 2>
PandemicResponseBox - Plate E

>  <Column 3>
B10

>  <Column 4>
MMV1782349

>  <Column 5>
10 mM

>  <Column 6>
ANTIVIRALS

>  <Column 7>


>  <Column 8>
None

>  <Column 9>


>  <Column 10>
Cc1cc(CCOc2c(C)cc(cc2C)c3nnn(C)n3)on1

>  <Column 11>
CHEMBL113564

>  <Column 12>


>  <Column 13>
313.4

>  <Column 14>
C16 H19 N5 O2

>  <Tox-Glu>
ATCTOX

>  <Column 15>


>  <Column 16>
100 

>  <Column 17>
102 

>  <Column 18>
88 

>  <Column 19>


>  <Tox-Gal>
CTOXGAL

>  <Column 20>


>  <Column 21>
91 

>  <Column 22>
92 

>  <Column 23>
75 

>  <Column 24>


>  <Column 25>


>  <PAMPA>
PAMPA

>  <Column 26>
351

>  <Column 27>


>  <Column 28>


>  <Mouse>
ATMETMOU

>  <Column 29>
135

>  <Column 30>


$$$$
Compound 388
Actelion Java MolfileCreator 2.0

  0  0  0  0  0  0              0 V3000
M  V30 BEGIN CTAB
M  V30 COUNTS 18 20 0 0 0
M  V30 BEGIN ATOM
M  V30 1 O 4.1018 -2.8614 0.0 0
M  V30 2 C 3.1237 -2.6534 0.0 0
M  V30 3 N 2.4546 -3.3966 0.0 0
M  V30 4 C 2.8147 -1.7024 0.0 0
M  V30 5 C 1.4764 -3.1887 0.0 0
M  V30 6 N 3.3147 -0.8364 0.0 0
M  V30 7 C 1.8365 -1.4945 0.0 0
M  V30 8 N 1.1674 -2.2376 0.0 0
M  V30 9 N 0.8073 -3.9318 0.0 0
M  V30 10 C 2.6455 -0.0932 0.0 0
M  V30 11 C 1.732 -0.5 0.0 0
M  V30 12 C 0.866 0.0 0.0 0
M  V30 13 C 0.0 -0.5 0.0 0
M  V30 14 C -0.866 0.0 0.0 0
M  V30 15 C 0.0 -1.4999 0.0 0
M  V30 16 N -1.732 -0.4999 0.0 0
M  V30 17 C -0.866 -1.9999 0.0 0
M  V30 18 C -1.732 -1.4999 0.0 0
M  V30 END ATOM
M  V30 BEGIN BOND
M  V30 1 2 1 2
M  V30 2 1 2 3
M  V30 3 1 2 4
M  V30 4 1 3 5
M  V30 5 1 4 6
M  V30 6 2 4 7
M  V30 7 2 5 8
M  V30 8 1 5 9
M  V30 9 1 6 10
M  V30 10 1 7 11
M  V30 11 1 11 12
M  V30 12 1 12 13
M  V30 13 2 13 14
M  V30 14 1 13 15
M  V30 15 1 14 16
M  V30 16 2 15 17
M  V30 17 2 16 18
M  V30 18 1 7 8
M  V30 19 2 10 11
M  V30 20 1 17 18
M  V30 END BOND
M  V30 END CTAB
M  END
>  <Column 1>
387

>  <Column 2>
PandemicResponseBox - Plate E

>  <Column 3>
C10

>  <Column 4>
MMV1782355

>  <Column 5>
10 mM

>  <Column 6>
ANTIVIRALS

>  <Column 7>


>  <Column 8>
None

>  <Column 9>
Peldesine

>  <Column 10>
NC1=Nc2c(Cc3cccnc3)c[nH]c2C(=O)N1

>  <Column 11>
CHEMBL311300

>  <Column 12>


>  <Column 13>
241.2

>  <Column 14>
C12 H11 N5 O

>  <Tox-Glu>
ATCTOX

>  <Column 15>


>  <Column 16>
95 

>  <Column 17>
95 

>  <Column 18>
95 

>  <Column 19>


>  <Tox-Gal>
CTOXGAL

>  <Column 20>


>  <Column 21>
94 

>  <Column 22>
91 

>  <Column 23>
91 

>  <Column 24>


>  <Column 25>


>  <PAMPA>
PAMPA

>  <Column 26>
undetected

>  <Column 27>
low sensitivity

>  <Column 28>


>  <Mouse>
ATMETMOU

>  <Column 29>
-27

>  <Column 30>


$$$$
Compound 389
Actelion Java MolfileCreator 2.0

  0  0  0  0  0  0              0 V3000
M  V30 BEGIN CTAB
M  V30 COUNTS 33 36 0 0 0
M  V30 BEGIN ATOM
M  V30 1 O 2.598 1.0 0.0 0
M  V30 2 C 2.598 0.0 0.0 0
M  V30 3 O 1.732 -0.5 0.0 0
M  V30 4 N 3.4641 -0.5 0.0 0
M  V30 5 C 0.866 0.0 0.0 0
M  V30 6 C 4.3301 0.0 0.0 0
M  V30 7 C 3.4641 -1.5 0.0 0
M  V30 8 C 0.0 -0.5 0.0 0 CFG=2
M  V30 9 C 5.1961 -0.4999 0.0 0
M  V30 10 C 4.3301 0.9999 0.0 0
M  V30 11 C 2.598 -1.9999 0.0 0
M  V30 12 C 4.3301 -2.0 0.0 0
M  V30 13 O 0.866 -1.0 0.0 0
M  V30 14 C -0.866 0.0 0.0 0
M  V30 15 C 0.0 -1.4999 0.0 0
M  V30 16 C 6.0621 0.0 0.0 0
M  V30 17 C 5.1961 1.4999 0.0 0
M  V30 18 C 2.598 -2.9999 0.0 0
M  V30 19 C 4.3301 -3.0 0.0 0
M  V30 20 C -1.732 -0.4999 0.0 0
M  V30 21 C -0.866 -1.9999 0.0 0
M  V30 22 C 6.0621 1.0 0.0 0
M  V30 23 C 3.4641 -3.5 0.0 0
M  V30 24 C -1.732 -1.4999 0.0 0
M  V30 25 C -2.598 0.0 0.0 0
M  V30 26 C -2.598 -1.9999 0.0 0
M  V30 27 C -3.4641 -0.4999 0.0 0
M  V30 28 O -2.598 -2.9999 0.0 0
M  V30 29 C -3.4641 -1.4999 0.0 0
M  V30 30 C -1.732 -3.4999 0.0 0
M  V30 31 C -1.732 -4.4999 0.0 0
M  V30 32 O -2.598 -4.9999 0.0 0
M  V30 33 O -0.866 -5.0 0.0 0
M  V30 END ATOM
M  V30 BEGIN BOND
M  V30 1 2 1 2
M  V30 2 1 2 3
M  V30 3 1 2 4
M  V30 4 1 3 5
M  V30 5 1 4 6
M  V30 6 1 4 7
M  V30 7 1 8 5
M  V30 8 2 6 9
M  V30 9 1 6 10
M  V30 10 2 7 11
M  V30 11 1 7 12
M  V30 12 1 8 13 CFG=3
M  V30 13 1 8 14
M  V30 14 1 8 15
M  V30 15 1 9 16
M  V30 16 2 10 17
M  V30 17 1 11 18
M  V30 18 2 12 19
M  V30 19 1 14 20
M  V30 20 1 15 21
M  V30 21 2 16 22
M  V30 22 2 18 23
M  V30 23 2 20 24
M  V30 24 1 20 25
M  V30 25 1 24 26
M  V30 26 2 25 27
M  V30 27 1 26 28
M  V30 28 2 26 29
M  V30 29 1 28 30
M  V30 30 1 30 31
M  V30 31 2 31 32
M  V30 32 1 31 33
M  V30 33 1 17 22
M  V30 34 1 19 23
M  V30 35 1 21 24
M  V30 36 1 27 29
M  V30 END BOND
M  V30 BEGIN COLLECTION
M  V30 MDLV30/STEABS ATOMS=(1 8)
M  V30 END COLLECTION
M  V30 END CTAB
M  END
>  <Column 1>
388

>  <Column 2>
PandemicResponseBox - Plate E

>  <Column 3>
D10

>  <Column 4>
MMV1782352

>  <Column 5>
10 mM

>  <Column 6>
ANTIVIRALS

>  <Column 7>


>  <Column 8>
None

>  <Column 9>
FK-788

>  <Column 10>
OC(=O)COc1cccc2C[C@@](O)(COC(=O)N(c3ccccc3)c4ccccc4)CCc12

>  <Column 11>
CHEMBL196779

>  <Column 12>
WO�2011146817

>  <Column 13>
447.5

>  <Column 14>
C26 H25 N O6

>  <Tox-Glu>
ATCTOX

>  <Column 15>


>  <Column 16>
99 

>  <Column 17>
102 

>  <Column 18>
101 

>  <Column 19>


>  <Tox-Gal>
CTOXGAL

>  <Column 20>


>  <Column 21>
95 

>  <Column 22>
97 

>  <Column 23>
99 

>  <Column 24>


>  <Column 25>


>  <PAMPA>
PAMPA

>  <Column 26>
5

>  <Column 27>


>  <Column 28>


>  <Mouse>
ATMETMOU

>  <Column 29>
-23

>  <Column 30>


$$$$
Compound 390
Actelion Java MolfileCreator 2.0

  0  0  0  0  0  0              0 V3000
M  V30 BEGIN CTAB
M  V30 COUNTS 31 34 0 0 0
M  V30 BEGIN ATOM
M  V30 1 O 1.732 -0.5 0.0 0
M  V30 2 C 2.598 0.0 0.0 0
M  V30 3 C 0.866 0.0 0.0 0
M  V30 4 C 3.4641 -0.4999 0.0 0
M  V30 5 C 2.598 0.9999 0.0 0
M  V30 6 C 0.866 1.0 0.0 0
M  V30 7 C 0.0 -0.5 0.0 0
M  V30 8 C 4.3301 0.0 0.0 0
M  V30 9 C 3.4641 1.5 0.0 0
M  V30 10 C 4.3301 1.0 0.0 0
M  V30 11 N 5.1961 1.5 0.0 0
M  V30 12 C 6.1096 1.0932 0.0 0
M  V30 13 C 5.3006 2.4945 0.0 0
M  V30 14 C 6.7788 1.8364 0.0 0
M  V30 15 C 6.4187 0.1422 0.0 0
M  V30 16 N 6.2788 2.7024 0.0 0
M  V30 17 C 7.7569 1.6284 0.0 0
M  V30 18 C 7.3968 -0.0657 0.0 0
M  V30 19 C 8.0659 0.6774 0.0 0
M  V30 20 C 9.0441 0.4695 0.0 0
M  V30 21 C 9.3531 -0.4815 0.0 0
M  V30 22 C 8.684 -1.2246 0.0 0
M  V30 23 C 8.993 -2.1757 0.0 0
M  V30 24 C 7.7058 -1.0167 0.0 0
M  V30 25 C 8.3239 -2.9188 0.0 0
M  V30 26 C 7.0367 -1.7599 0.0 0
M  V30 27 C 7.3457 -2.7109 0.0 0
M  V30 28 C 6.6766 -3.4541 0.0 0
M  V30 29 O 5.9334 -2.7849 0.0 0
M  V30 30 C 6.0075 -4.1972 0.0 0
M  V30 31 C 7.4197 -4.1232 0.0 0
M  V30 END ATOM
M  V30 BEGIN BOND
M  V30 1 1 1 2
M  V30 2 1 1 3
M  V30 3 2 2 4
M  V30 4 1 2 5
M  V30 5 1 3 6
M  V30 6 1 3 7
M  V30 7 1 4 8
M  V30 8 2 5 9
M  V30 9 2 8 10
M  V30 10 1 10 11
M  V30 11 1 11 12
M  V30 12 1 11 13
M  V30 13 2 12 14
M  V30 14 1 12 15
M  V30 15 2 13 16
M  V30 16 1 14 17
M  V30 17 2 15 18
M  V30 18 2 17 19
M  V30 19 1 19 20
M  V30 20 2 20 21
M  V30 21 1 21 22
M  V30 22 2 22 23
M  V30 23 1 22 24
M  V30 24 1 23 25
M  V30 25 2 24 26
M  V30 26 2 25 27
M  V30 27 1 27 28
M  V30 28 1 28 29
M  V30 29 1 28 30
M  V30 30 1 28 31
M  V30 31 1 9 10
M  V30 32 1 14 16
M  V30 33 1 18 19
M  V30 34 1 26 27
M  V30 END BOND
M  V30 END CTAB
M  END
>  <Column 1>
389

>  <Column 2>
PandemicResponseBox - Plate E

>  <Column 3>
E10

>  <Column 4>
MMV1782350

>  <Column 5>
10 mM

>  <Column 6>
ANTIVIRALS

>  <Column 7>


>  <Column 8>
None

>  <Column 9>


>  <Column 10>
CC(C)Oc1ccc(cc1)n2cnc3cc(\C=C/c4ccc(cc4)C(C)(C)O)ccc23

>  <Column 11>
NA

>  <Column 12>
WO�2013123215

>  <Column 13>
412.5

>  <Column 14>
C27 H28 N2 O2

>  <Tox-Glu>
ATCTOX

>  <Column 15>


>  <Column 16>
36 

>  <Column 17>
19 

>  <Column 18>
18 

>  <Column 19>


>  <Tox-Gal>
CTOXGAL

>  <Column 20>


>  <Column 21>
1 

>  <Column 22>
1 

>  <Column 23>
1 

>  <Column 24>


>  <Column 25>


>  <PAMPA>
PAMPA

>  <Column 26>
307

>  <Column 27>


>  <Column 28>


>  <Mouse>
ATMETMOU

>  <Column 29>
18

>  <Column 30>


$$$$
Compound 391
Actelion Java MolfileCreator 2.0

  0  0  0  0  0  0              0 V3000
M  V30 BEGIN CTAB
M  V30 COUNTS 31 34 0 0 0
M  V30 BEGIN ATOM
M  V30 1 F 9.5027 3.0917 0.0 0
M  V30 2 C 8.5246 2.8838 0.0 0
M  V30 3 C 7.8555 3.6269 0.0 0
M  V30 4 C 8.2156 1.9327 0.0 0
M  V30 5 C 6.8773 3.419 0.0 0
M  V30 6 C 7.2374 1.7248 0.0 0
M  V30 7 C 6.5683 2.4679 0.0 0
M  V30 8 C 5.5902 2.26 0.0 0
M  V30 9 N 5.2811 1.309 0.0 0
M  V30 10 C 4.3301 1.0 0.0 0
M  V30 11 C 5.8689 0.5 0.0 0
M  V30 12 C 4.3301 0.0 0.0 0
M  V30 13 C 3.4641 1.5 0.0 0
M  V30 14 C 5.2811 -0.309 0.0 0
M  V30 15 C 3.4641 -0.4999 0.0 0
M  V30 16 N 2.598 0.9999 0.0 0
M  V30 17 C 5.5902 -1.26 0.0 0
M  V30 18 C 2.598 0.0 0.0 0
M  V30 19 N 6.5683 -1.4679 0.0 0
M  V30 20 C 1.732 -0.5 0.0 0
M  V30 21 C 6.975 -2.3815 0.0 0 CFG=2
M  V30 22 C 7.3114 -0.7988 0.0 0
M  V30 23 O 1.732 -1.5 0.0 0
M  V30 24 N 0.866 0.0 0.0 0
M  V30 25 C 6.475 -3.2475 0.0 0
M  V30 26 C 7.9696 -2.277 0.0 0
M  V30 27 C 8.1775 -1.2988 0.0 0
M  V30 28 O 0.866 1.0 0.0 0
M  V30 29 C 0.0 -0.5 0.0 0
M  V30 30 O 5.475 -3.2475 0.0 0
M  V30 31 N 6.975 -4.1135 0.0 0
M  V30 END ATOM
M  V30 BEGIN BOND
M  V30 1 1 1 2
M  V30 2 2 2 3
M  V30 3 1 2 4
M  V30 4 1 3 5
M  V30 5 2 4 6
M  V30 6 2 5 7
M  V30 7 1 7 8
M  V30 8 1 8 9
M  V30 9 1 9 10
M  V30 10 1 9 11
M  V30 11 2 10 12
M  V30 12 1 10 13
M  V30 13 2 11 14
M  V30 14 1 12 15
M  V30 15 2 13 16
M  V30 16 1 14 17
M  V30 17 2 15 18
M  V30 18 1 17 19
M  V30 19 1 18 20
M  V30 20 1 21 19
M  V30 21 1 19 22
M  V30 22 2 20 23
M  V30 23 1 20 24
M  V30 24 1 21 25 CFG=1
M  V30 25 1 21 26
M  V30 26 1 22 27
M  V30 27 1 24 28
M  V30 28 1 24 29
M  V30 29 2 25 30
M  V30 30 1 25 31
M  V30 31 1 6 7
M  V30 32 1 12 14
M  V30 33 1 16 18
M  V30 34 1 26 27
M  V30 END BOND
M  V30 BEGIN COLLECTION
M  V30 MDLV30/STEABS ATOMS=(1 21)
M  V30 END COLLECTION
M  V30 END CTAB
M  END
>  <Column 1>
390

>  <Column 2>
PandemicResponseBox - Plate E

>  <Column 3>
F10

>  <Column 4>
MMV1782386

>  <Column 5>
10 mM

>  <Column 6>
ANTIVIRALS

>  <Column 7>


>  <Column 8>
None

>  <Column 9>


>  <Column 10>
CN(O)C(=O)c1cc2c(CN3CCC[C@H]3C(=O)N)cn(Cc4ccc(F)cc4)c2cn1

>  <Column 11>
CHEMBL1289313

>  <Column 12>
WO�2006027694,Bioorganic & Medicinal Chemistry Letters (2010), 20(24), 7429-7434

>  <Column 13>
425.4

>  <Column 14>
C22 H24 F N5 O3

>  <Tox-Glu>
ATCTOX

>  <Column 15>


>  <Column 16>
102 

>  <Column 17>
99 

>  <Column 18>
87 

>  <Column 19>


>  <Tox-Gal>
CTOXGAL

>  <Column 20>


>  <Column 21>
95 

>  <Column 22>
94 

>  <Column 23>
79 

>  <Column 24>


>  <Column 25>


>  <PAMPA>
PAMPA

>  <Column 26>
206

>  <Column 27>


>  <Column 28>


>  <Mouse>
ATMETMOU

>  <Column 29>
15

>  <Column 30>


$$$$
Compound 392
Actelion Java MolfileCreator 2.0

  0  0  0  0  0  0              0 V3000
M  V30 BEGIN CTAB
M  V30 COUNTS 33 37 0 0 0
M  V30 BEGIN ATOM
M  V30 1 O 1.732 1.4999 0.0 0
M  V30 2 C 0.866 0.9999 0.0 0
M  V30 3 N 0.1561 1.6952 0.0 0
M  V30 4 C 0.866 0.0 0.0 0
M  V30 5 C 1.732 -0.5 0.0 0
M  V30 6 C 0.0 0.5 0.0 0
M  V30 7 C 0.0 -0.5 0.0 0 CFG=2
M  V30 8 C 2.598 0.0 0.0 0
M  V30 9 C 1.732 -1.5 0.0 0
M  V30 10 C -0.8798 -0.212 0.0 0
M  V30 11 C -0.078 1.4023 0.0 0
M  V30 12 C -0.8674 0.1298 0.0 0
M  V30 13 C 0.0 -1.4999 0.0 0
M  V30 14 C 3.4641 -0.5 0.0 0
M  V30 15 C 2.598 -2.0 0.0 0
M  V30 16 C -1.732 0.5 0.0 0
M  V30 17 C -0.866 1.9999 0.0 0
M  V30 18 N -1.732 -0.4999 0.0 0
M  V30 19 C -0.866 -1.9999 0.0 0
M  V30 20 C 3.4641 -1.5 0.0 0
M  V30 21 C -1.732 1.5 0.0 0
M  V30 22 C -1.732 -1.4999 0.0 0
M  V30 23 C -2.598 0.0 0.0 0
M  V30 24 C -2.598 1.0 0.0 0
M  V30 25 C -3.4641 1.5 0.0 0
M  V30 26 C -4.3301 1.0 0.0 0
M  V30 27 C -3.4641 2.5 0.0 0
M  V30 28 C -5.1961 1.5 0.0 0
M  V30 29 C -4.3301 3.0 0.0 0
M  V30 30 C -5.1961 2.5 0.0 0
M  V30 31 C -6.1472 1.1909 0.0 0
M  V30 32 O -6.1472 2.809 0.0 0
M  V30 33 C -6.7349 2.0 0.0 0
M  V30 END ATOM
M  V30 BEGIN BOND
M  V30 1 2 1 2
M  V30 2 1 2 3
M  V30 3 1 2 4
M  V30 4 1 4 5
M  V30 5 1 4 6
M  V30 6 1 7 4 CFG=1
M  V30 7 2 5 8
M  V30 8 1 5 9
M  V30 9 2 6 10
M  V30 10 1 6 11
M  V30 11 1 7 12
M  V30 12 1 7 13
M  V30 13 1 8 14
M  V30 14 2 9 15
M  V30 15 1 10 16
M  V30 16 2 11 17
M  V30 17 1 12 18
M  V30 18 1 13 19
M  V30 19 2 14 20
M  V30 20 2 16 21
M  V30 21 1 18 22
M  V30 22 1 18 23
M  V30 23 1 23 24
M  V30 24 1 24 25
M  V30 25 2 25 26
M  V30 26 1 25 27
M  V30 27 1 26 28
M  V30 28 2 27 29
M  V30 29 2 28 30
M  V30 30 1 28 31
M  V30 31 1 30 32
M  V30 32 1 31 33
M  V30 33 1 15 20
M  V30 34 1 17 21
M  V30 35 1 19 22
M  V30 36 1 29 30
M  V30 37 1 32 33
M  V30 END BOND
M  V30 BEGIN COLLECTION
M  V30 MDLV30/STEABS ATOMS=(1 7)
M  V30 END COLLECTION
M  V30 END CTAB
M  END
>  <Column 1>
391

>  <Column 2>
PandemicResponseBox - Plate E

>  <Column 3>
G10

>  <Column 4>
MMV1782412

>  <Column 5>
10 mM

>  <Column 6>
ANTIVIRALS

>  <Column 7>


>  <Column 8>
None

>  <Column 9>


>  <Column 10>
NC(=O)C([C@H]1CCCN(CCc2ccc3OCCc3c2)C1)(c4ccccc4)c5ccccc5

>  <Column 11>
CHEMBL522951

>  <Column 12>


>  <Column 13>
440.6

>  <Column 14>
C29 H32 N2 O2

>  <Tox-Glu>
ATCTOX

>  <Column 15>


>  <Column 16>
97 

>  <Column 17>
75 

>  <Column 18>
1 

>  <Column 19>


>  <Tox-Gal>
CTOXGAL

>  <Column 20>


>  <Column 21>
97 

>  <Column 22>
94 

>  <Column 23>
1 

>  <Column 24>


>  <Column 25>


>  <PAMPA>
PAMPA

>  <Column 26>
466

>  <Column 27>


>  <Column 28>


>  <Mouse>
ATMETMOU

>  <Column 29>
275

>  <Column 30>


$$$$
