Compound 1
Actelion Java MolfileCreator 2.0

  0  0  0  0  0  0              0 V3000
M  V30 BEGIN CTAB
M  V30 COUNTS 21 24 0 0 0
M  V30 BEGIN ATOM
M  V30 1 S 3.5116 -0.4067 0.0 0
M  V30 2 C 4.1807 0.3364 0.0 0
M  V30 3 C 2.598 0.0 0.0 0
M  V30 4 N 5.1588 0.5443 0.0 0
M  V30 5 N 3.6807 1.2024 0.0 0
M  V30 6 N 2.7026 0.9945 0.0 0
M  V30 7 N 1.732 -0.5 0.0 0
M  V30 8 C 5.2634 1.5388 0.0 0
M  V30 9 C 4.3498 1.9455 0.0 0
M  V30 10 C 0.866 0.0 0.0 0
M  V30 11 C 4.1419 2.9237 0.0 0
M  V30 12 C 0.0 -0.5 0.0 0
M  V30 13 S 4.8111 3.6668 0.0 0
M  V30 14 C 3.2284 3.3304 0.0 0
M  V30 15 C -0.866 0.0 0.0 0
M  V30 16 C 0.0 -1.4999 0.0 0
M  V30 17 C 4.3111 4.5328 0.0 0
M  V30 18 C 3.3329 4.3249 0.0 0
M  V30 19 C -1.732 -0.4999 0.0 0
M  V30 20 C -0.866 -1.9999 0.0 0
M  V30 21 O -1.732 -1.4999 0.0 0
M  V30 END ATOM
M  V30 BEGIN BOND
M  V30 1 1 1 2
M  V30 2 1 1 3
M  V30 3 2 2 4
M  V30 4 1 2 5
M  V30 5 2 3 6
M  V30 6 1 3 7
M  V30 7 1 4 8
M  V30 8 1 5 9
M  V30 9 1 7 10
M  V30 10 1 9 11
M  V30 11 1 10 12
M  V30 12 1 11 13
M  V30 13 2 11 14
M  V30 14 1 12 15
M  V30 15 1 12 16
M  V30 16 1 13 17
M  V30 17 1 14 18
M  V30 18 1 15 19
M  V30 19 1 16 20
M  V30 20 1 19 21
M  V30 21 1 5 6
M  V30 22 2 8 9
M  V30 23 2 17 18
M  V30 24 1 20 21
M  V30 END BOND
M  V30 END CTAB
M  END
>  <Rack>
PathogenBox_PlateA

>  <Position>
A02

>  <Compound ID>
MMV010764

>  <Disease Set>
MALARIA

>  <Trivial Name>


>  <Total Molecular Weight>
320.44

>  <Molecular Weight Parent Molecule>
320.44

>  <Molecular Formula>
C14H16N4OS2

>  <Salt Name>


>  <Salt Coefficient>


>  <cLogP>
2.54

>  <SMILES>
C(Nc1nn2c(cnc2s1)c3cccs3)C4CCOCC4

$$$$
Compound 2
Actelion Java MolfileCreator 2.0

  0  0  0  0  0  0              0 V3000
M  V30 BEGIN CTAB
M  V30 COUNTS 28 31 0 0 0
M  V30 BEGIN ATOM
M  V30 1 Cl 7.7942 3.75 0.0 0
M  V30 2 C 7.7942 2.25 0.0 0
M  V30 3 C 6.4951 1.5 0.0 0
M  V30 4 C 9.0932 1.4999 0.0 0
M  V30 5 C 6.4951 0.0 0.0 0
M  V30 6 C 9.0932 0.0 0.0 0
M  V30 7 O 5.1961 -0.75 0.0 0
M  V30 8 C 7.7942 -0.75 0.0 0
M  V30 9 C 3.8971 0.0 0.0 0 CFG=2
M  V30 10 C 2.598 -0.75 0.0 0
M  V30 11 C 3.8971 1.5 0.0 0
M  V30 12 O 2.598 -2.25 0.0 0
M  V30 13 N 1.299 0.0 0.0 0
M  V30 14 C 0.0 -0.75 0.0 0
M  V30 15 C -1.299 0.0 0.0 0
M  V30 16 C 0.0 -2.2499 0.0 0
M  V30 17 C -2.598 -0.7499 0.0 0
M  V30 18 C -1.299 -2.9999 0.0 0
M  V30 19 N -4.0246 -0.2864 0.0 0
M  V30 20 C -2.598 -2.2499 0.0 0
M  V30 21 C -4.9063 -1.4999 0.0 0
M  V30 22 O -4.0246 -2.7135 0.0 0
M  V30 23 C -6.4063 -1.4999 0.0 0
M  V30 24 C -7.1563 -0.2009 0.0 0
M  V30 25 C -7.1563 -2.799 0.0 0
M  V30 26 C -8.6563 -0.2009 0.0 0
M  V30 27 C -8.6563 -2.799 0.0 0
M  V30 28 N -9.4063 -1.4999 0.0 0
M  V30 END ATOM
M  V30 BEGIN BOND
M  V30 1 1 1 2
M  V30 2 2 2 3
M  V30 3 1 2 4
M  V30 4 1 3 5
M  V30 5 2 4 6
M  V30 6 1 5 7
M  V30 7 2 5 8
M  V30 8 1 9 7 CFG=3
M  V30 9 1 9 10
M  V30 10 1 9 11
M  V30 11 2 10 12
M  V30 12 1 10 13
M  V30 13 1 13 14
M  V30 14 2 14 15
M  V30 15 1 14 16
M  V30 16 1 15 17
M  V30 17 2 16 18
M  V30 18 1 17 19
M  V30 19 2 17 20
M  V30 20 2 19 21
M  V30 21 1 20 22
M  V30 22 1 21 23
M  V30 23 2 23 24
M  V30 24 1 23 25
M  V30 25 1 24 26
M  V30 26 2 25 27
M  V30 27 2 26 28
M  V30 28 1 6 8
M  V30 29 1 18 20
M  V30 30 1 21 22
M  V30 31 1 27 28
M  V30 END BOND
M  V30 BEGIN COLLECTION
M  V30 MDLV30/STERAC1 ATOMS=(1 9)
M  V30 END COLLECTION
M  V30 END CTAB
M  END
>  <Rack>
PathogenBox_PlateA

>  <Position>
A03

>  <Compound ID>
MMV688472

>  <Disease Set>
TOXOPLASMOSIS

>  <Trivial Name>


>  <Total Molecular Weight>
393.82

>  <Molecular Weight Parent Molecule>
393.82

>  <Molecular Formula>
C21H16N3O3Cl

>  <Salt Name>


>  <Salt Coefficient>


>  <cLogP>
4.00

>  <SMILES>
CC(Oc1cccc(Cl)c1)C(=O)Nc1ccc2oc(nc2c1)-c1ccncc1

$$$$
Compound 3
Actelion Java MolfileCreator 2.0

  0  0  0  0  0  0              0 V3000
M  V30 BEGIN CTAB
M  V30 COUNTS 31 34 0 0 0
M  V30 BEGIN ATOM
M  V30 1 Cl 4.8165 13.1623 0.0 0
M  V30 2 C 5.6982 11.9488 0.0 0
M  V30 3 C 5.0881 10.5785 0.0 0
M  V30 4 C 7.19 12.1056 0.0 0
M  V30 5 C 5.9698 9.3649 0.0 0
M  V30 6 C 8.0716 10.8921 0.0 0
M  V30 7 C 7.4615 9.5217 0.0 0
M  V30 8 C 8.3432 8.3082 0.0 0
M  V30 9 S 7.8797 6.8816 0.0 0
M  V30 10 C 9.8432 8.3082 0.0 0
M  V30 11 C 9.0932 6.0 0.0 0
M  V30 12 C 10.3067 6.8816 0.0 0
M  V30 13 C 9.0932 4.5 0.0 0
M  V30 14 N 7.7942 3.75 0.0 0
M  V30 15 C 10.3923 3.75 0.0 0
M  V30 16 C 7.7942 2.25 0.0 0
M  V30 17 C 10.3923 2.25 0.0 0
M  V30 18 N 9.0932 1.5 0.0 0
M  V30 19 N 6.4951 1.5 0.0 0
M  V30 20 C 5.1961 2.25 0.0 0
M  V30 21 C 6.4951 0.0 0.0 0
M  V30 22 C 3.8971 1.5 0.0 0
M  V30 23 C 5.1961 -0.7499 0.0 0
M  V30 24 N 3.8971 0.0 0.0 0
M  V30 25 C 2.598 -0.75 0.0 0
M  V30 26 O 2.598 -2.25 0.0 0
M  V30 27 O 1.299 0.0 0.0 0
M  V30 28 C 0.0 -0.75 0.0 0
M  V30 29 C 0.7499 -2.049 0.0 0
M  V30 30 C -1.299 -1.4999 0.0 0
M  V30 31 C -0.7499 0.549 0.0 0
M  V30 END ATOM
M  V30 BEGIN BOND
M  V30 1 1 1 2
M  V30 2 2 2 3
M  V30 3 1 2 4
M  V30 4 1 3 5
M  V30 5 2 4 6
M  V30 6 2 5 7
M  V30 7 1 7 8
M  V30 8 1 8 9
M  V30 9 2 8 10
M  V30 10 1 9 11
M  V30 11 1 10 12
M  V30 12 1 11 13
M  V30 13 2 13 14
M  V30 14 1 13 15
M  V30 15 1 14 16
M  V30 16 2 15 17
M  V30 17 2 16 18
M  V30 18 1 16 19
M  V30 19 1 19 20
M  V30 20 1 19 21
M  V30 21 1 20 22
M  V30 22 1 21 23
M  V30 23 1 22 24
M  V30 24 1 24 25
M  V30 25 2 25 26
M  V30 26 1 25 27
M  V30 27 1 27 28
M  V30 28 1 28 29
M  V30 29 1 28 30
M  V30 30 1 28 31
M  V30 31 1 6 7
M  V30 32 2 11 12
M  V30 33 1 17 18
M  V30 34 1 23 24
M  V30 END BOND
M  V30 END CTAB
M  END
>  <Rack>
PathogenBox_PlateA

>  <Position>
A04

>  <Compound ID>
MMV688416

>  <Disease Set>
DENGUE

>  <Trivial Name>


>  <Total Molecular Weight>
456.99

>  <Molecular Weight Parent Molecule>
456.99

>  <Molecular Formula>
C23H25N4O2ClS

>  <Salt Name>


>  <Salt Coefficient>


>  <cLogP>
5.93

>  <SMILES>
CC(C)(C)OC(=O)N1CCN(CC1)c2nccc(n2)c3ccc(s3)c4ccc(Cl)cc4

$$$$
Compound 4
Actelion Java MolfileCreator 2.0

  0  0  0  0  0  0              0 V3000
M  V30 BEGIN CTAB
M  V30 COUNTS 37 41 0 0 0
M  V30 BEGIN ATOM
M  V30 1 Br 6.9282 -4.5 0.0 0
M  V30 2 C 6.9282 -3.4999 0.0 0
M  V30 3 C 6.0621 -3.0 0.0 0
M  V30 4 C 7.7942 -2.9999 0.0 0
M  V30 5 C 6.0621 -1.9999 0.0 0
M  V30 6 C 7.7942 -2.0 0.0 0
M  V30 7 C 6.9282 -1.4999 0.0 0
M  V30 8 C 5.1961 -1.5 0.0 0
M  V30 9 N 6.9282 -0.4999 0.0 0
M  V30 10 C 5.1961 -0.5 0.0 0
M  V30 11 C 6.0621 0.0 0.0 0
M  V30 12 C 4.3301 0.0 0.0 0 CFG=1
M  V30 13 O 6.0621 1.0 0.0 0
M  V30 14 C 4.2246 1.0585 0.0 0
M  V30 15 C 3.4641 -0.5 0.0 0 CFG=2
M  V30 16 C 6.9282 1.5 0.0 0
M  V30 17 C 5.1961 1.4999 0.0 0
M  V30 18 C 3.4641 1.5 0.0 0
M  V30 19 O 3.4641 -1.5 0.0 0
M  V30 20 C 3.4641 0.4999 0.0 0
M  V30 21 C 2.598 0.0 0.0 0
M  V30 22 C 5.1961 2.4999 0.0 0
M  V30 23 C 3.6473 2.6388 0.0 0
M  V30 24 C 2.598 1.0 0.0 0
M  V30 25 C 4.5289 0.8641 0.0 0
M  V30 26 C 1.732 -0.4999 0.0 0
M  V30 27 C 4.3301 2.9999 0.0 0
M  V30 28 C 2.598 1.9999 0.0 0
M  V30 29 C 1.732 0.5 0.0 0
M  V30 30 C 4.3301 1.9999 0.0 0
M  V30 31 N 1.732 -1.4999 0.0 0
M  V30 32 C 3.326 2.4727 0.0 0
M  V30 33 C 1.732 2.5 0.0 0
M  V30 34 C 0.866 0.9999 0.0 0
M  V30 35 C 2.598 -2.0 0.0 0
M  V30 36 C 0.866 -2.0 0.0 0
M  V30 37 C 0.866 1.9999 0.0 0
M  V30 END ATOM
M  V30 BEGIN BOND
M  V30 1 1 1 2
M  V30 2 2 2 3
M  V30 3 1 2 4
M  V30 4 1 3 5
M  V30 5 2 4 6
M  V30 6 1 5 7
M  V30 7 2 5 8
M  V30 8 2 7 9
M  V30 9 1 8 10
M  V30 10 1 9 11
M  V30 11 1 12 10 CFG=3
M  V30 12 1 11 13
M  V30 13 1 12 14
M  V30 14 1 15 12
M  V30 15 1 13 16
M  V30 16 2 14 17
M  V30 17 1 14 18
M  V30 18 1 15 19
M  V30 19 1 15 20 CFG=3
M  V30 20 1 15 21
M  V30 21 1 17 22
M  V30 22 2 18 23
M  V30 23 1 20 24
M  V30 24 2 20 25
M  V30 25 1 21 26
M  V30 26 2 22 27
M  V30 27 1 24 28
M  V30 28 2 24 29
M  V30 29 1 25 30
M  V30 30 1 26 31
M  V30 31 1 28 32
M  V30 32 2 28 33
M  V30 33 1 29 34
M  V30 34 1 31 35
M  V30 35 1 31 36
M  V30 36 1 33 37
M  V30 37 1 6 7
M  V30 38 2 10 11
M  V30 39 1 23 27
M  V30 40 2 30 32
M  V30 41 2 34 37
M  V30 END BOND
M  V30 BEGIN COLLECTION
M  V30 MDLV30/STEABS ATOMS=(2 12 15)
M  V30 END COLLECTION
M  V30 END CTAB
M  END
>  <Rack>
PathogenBox_PlateA

>  <Position>
A05

>  <Compound ID>
MMV689758

>  <Disease Set>
REFERENCE COMPOUNDS

>  <Trivial Name>
Bedaquiline

>  <Total Molecular Weight>
669.55

>  <Molecular Weight Parent Molecule>
555.50

>  <Molecular Formula>
C32H31N2O2Br

>  <Salt Name>
Fumarate

>  <Salt Coefficient>
1

>  <cLogP>
7.17

>  <SMILES>
COc1nc2ccc(Br)cc2cc1[C@@H](c3ccccc3)[C@@](O)(CCN(C)C)c4cccc5ccccc45

$$$$
Compound 5
Actelion Java MolfileCreator 2.0

  0  0  0  0  0  0              0 V3000
M  V30 BEGIN CTAB
M  V30 COUNTS 26 29 0 0 0
M  V30 BEGIN ATOM
M  V30 1 F 13.5372 -0.6274 0.0 0
M  V30 2 C 12.0455 -0.7842 0.0 0
M  V30 3 C 11.1638 0.4292 0.0 0
M  V30 4 C 11.4354 -2.1545 0.0 0
M  V30 5 C 9.672 0.2724 0.0 0
M  V30 6 C 9.9436 -2.3113 0.0 0
M  V30 7 C 9.0619 -1.0978 0.0 0
M  V30 8 C 7.5701 -1.2546 0.0 0
M  V30 9 O 6.5664 -0.1398 0.0 0
M  V30 10 C 6.8201 -2.5536 0.0 0
M  V30 11 C 5.1961 -0.75 0.0 0
M  V30 12 C 5.3529 -2.2417 0.0 0
M  V30 13 C 3.8971 0.0 0.0 0
M  V30 14 O 3.8971 1.5 0.0 0
M  V30 15 N 2.598 -0.75 0.0 0
M  V30 16 C 1.299 0.0 0.0 0
M  V30 17 C 0.0 -0.75 0.0 0
M  V30 18 N -1.3703 -0.1398 0.0 0
M  V30 19 N -0.1567 -2.2417 0.0 0
M  V30 20 N -2.374 -1.2546 0.0 0
M  V30 21 C -1.624 -2.5536 0.0 0
M  V30 22 C 1.0018 -3.1944 0.0 0
M  V30 23 C -2.2949 -3.8952 0.0 0
M  V30 24 C 0.9793 -4.6942 0.0 0
M  V30 25 C -1.6644 -5.2562 0.0 0
M  V30 26 C -0.2072 -5.6118 0.0 0
M  V30 END ATOM
M  V30 BEGIN BOND
M  V30 1 1 1 2
M  V30 2 2 2 3
M  V30 3 1 2 4
M  V30 4 1 3 5
M  V30 5 2 4 6
M  V30 6 2 5 7
M  V30 7 1 7 8
M  V30 8 1 8 9
M  V30 9 2 8 10
M  V30 10 1 9 11
M  V30 11 1 10 12
M  V30 12 1 11 13
M  V30 13 2 13 14
M  V30 14 1 13 15
M  V30 15 1 15 16
M  V30 16 1 16 17
M  V30 17 2 17 18
M  V30 18 1 17 19
M  V30 19 1 18 20
M  V30 20 1 19 21
M  V30 21 1 19 22
M  V30 22 1 21 23
M  V30 23 1 22 24
M  V30 24 1 23 25
M  V30 25 1 24 26
M  V30 26 1 6 7
M  V30 27 2 11 12
M  V30 28 2 20 21
M  V30 29 1 25 26
M  V30 END BOND
M  V30 END CTAB
M  END
>  <Rack>
PathogenBox_PlateA

>  <Position>
A06

>  <Compound ID>
MMV688796

>  <Disease Set>
KINETOPLASTIDS

>  <Trivial Name>


>  <Total Molecular Weight>
354.38

>  <Molecular Weight Parent Molecule>
354.38

>  <Molecular Formula>
C19H19N4O2F

>  <Salt Name>


>  <Salt Coefficient>


>  <cLogP>
3.14

>  <SMILES>
Fc1ccc(cc1)c2oc(cc2)C(=O)NCc3nnc4CCCCCn34

$$$$
Compound 6
Actelion Java MolfileCreator 2.0

  0  0  0  0  0  0              0 V3000
M  V30 BEGIN CTAB
M  V30 COUNTS 27 29 0 0 0
M  V30 BEGIN ATOM
M  V30 1 Cl 1.732 1.4999 0.0 0
M  V30 2 C 2.598 1.0 0.0 0
M  V30 3 C 2.598 0.0 0.0 0
M  V30 4 C 3.4641 1.4999 0.0 0
M  V30 5 C 1.732 -0.5 0.0 0
M  V30 6 C 3.4641 -0.5 0.0 0
M  V30 7 C 4.3301 1.0 0.0 0
M  V30 8 O 1.732 -1.5 0.0 0
M  V30 9 N 0.866 0.0 0.0 0
M  V30 10 C 4.3301 0.0 0.0 0
M  V30 11 F 5.1961 1.5 0.0 0
M  V30 12 C 0.0 -0.5 0.0 0
M  V30 13 C -0.866 0.0 0.0 0
M  V30 14 C 0.0 -1.4999 0.0 0
M  V30 15 C -1.732 -0.4999 0.0 0
M  V30 16 C -0.866 -1.9999 0.0 0
M  V30 17 C -1.732 -1.4999 0.0 0
M  V30 18 C -2.598 0.0 0.0 0
M  V30 19 O -2.598 -1.9999 0.0 0
M  V30 20 C -2.598 1.0 0.0 0
M  V30 21 C -3.4641 -0.4999 0.0 0
M  V30 22 C -2.598 -2.9999 0.0 0
M  V30 23 C -3.4641 1.5 0.0 0
M  V30 24 C -4.3301 0.0 0.0 0
M  V30 25 C -4.3301 1.0 0.0 0
M  V30 26 O -5.1961 1.5 0.0 0
M  V30 27 C -6.0621 1.0 0.0 0
M  V30 END ATOM
M  V30 BEGIN BOND
M  V30 1 1 1 2
M  V30 2 2 2 3
M  V30 3 1 2 4
M  V30 4 1 3 5
M  V30 5 1 3 6
M  V30 6 2 4 7
M  V30 7 2 5 8
M  V30 8 1 5 9
M  V30 9 2 6 10
M  V30 10 1 7 11
M  V30 11 1 9 12
M  V30 12 2 12 13
M  V30 13 1 12 14
M  V30 14 1 13 15
M  V30 15 2 14 16
M  V30 16 2 15 17
M  V30 17 1 15 18
M  V30 18 1 17 19
M  V30 19 2 18 20
M  V30 20 1 18 21
M  V30 21 1 19 22
M  V30 22 1 20 23
M  V30 23 2 21 24
M  V30 24 2 23 25
M  V30 25 1 25 26
M  V30 26 1 26 27
M  V30 27 1 7 10
M  V30 28 1 16 17
M  V30 29 1 24 25
M  V30 END BOND
M  V30 END CTAB
M  END
>  <Rack>
PathogenBox_PlateA

>  <Position>
A07

>  <Compound ID>
MMV676526

>  <Disease Set>
TUBERCULOSIS

>  <Trivial Name>


>  <Total Molecular Weight>
385.82

>  <Molecular Weight Parent Molecule>
385.82

>  <Molecular Formula>
C21H17NO3ClF

>  <Salt Name>


>  <Salt Coefficient>


>  <cLogP>
5.03

>  <SMILES>
COc1ccc(cc1)c2cc(NC(=O)c3ccc(F)cc3Cl)ccc2OC

$$$$
Compound 7
Actelion Java MolfileCreator 2.0

  0  0  0  0  0  0              0 V3000
M  V30 BEGIN CTAB
M  V30 COUNTS 25 28 0 0 0
M  V30 BEGIN ATOM
M  V30 1 O 3.4641 -0.5 0.0 0
M  V30 2 C 2.598 0.0 0.0 0
M  V30 3 N 2.598 1.0 0.0 0
M  V30 4 N 1.732 -0.5 0.0 0
M  V30 5 C 3.4641 1.5 0.0 0
M  V30 6 C 1.732 1.5 0.0 0
M  V30 7 C 0.866 0.0 0.0 0
M  V30 8 C 3.4641 2.5 0.0 0
M  V30 9 C 1.732 2.5 0.0 0
M  V30 10 C 0.0 -0.5 0.0 0
M  V30 11 N 2.598 3.0 0.0 0
M  V30 12 C -0.9135 -0.0932 0.0 0
M  V30 13 C -0.1045 -1.4945 0.0 0
M  V30 14 C 2.598 4.0 0.0 0
M  V30 15 O -1.5826 -0.8364 0.0 0
M  V30 16 C -1.0826 -1.7024 0.0 0
M  V30 17 C 1.732 4.5 0.0 0
M  V30 18 C 1.732 5.5 0.0 0
M  V30 19 C 0.866 4.0 0.0 0
M  V30 20 C 0.866 6.0 0.0 0
M  V30 21 C 0.0 4.5 0.0 0
M  V30 22 O 0.6581 6.9781 0.0 0
M  V30 23 C 0.0 5.5 0.0 0
M  V30 24 C -0.3364 7.0826 0.0 0
M  V30 25 O -0.7431 6.1691 0.0 0
M  V30 END ATOM
M  V30 BEGIN BOND
M  V30 1 2 1 2
M  V30 2 1 2 3
M  V30 3 1 2 4
M  V30 4 1 3 5
M  V30 5 1 3 6
M  V30 6 1 4 7
M  V30 7 1 5 8
M  V30 8 1 6 9
M  V30 9 1 7 10
M  V30 10 1 8 11
M  V30 11 2 10 12
M  V30 12 1 10 13
M  V30 13 1 11 14
M  V30 14 1 12 15
M  V30 15 2 13 16
M  V30 16 1 14 17
M  V30 17 2 17 18
M  V30 18 1 17 19
M  V30 19 1 18 20
M  V30 20 2 19 21
M  V30 21 1 20 22
M  V30 22 2 20 23
M  V30 23 1 22 24
M  V30 24 1 23 25
M  V30 25 1 9 11
M  V30 26 1 15 16
M  V30 27 1 21 23
M  V30 28 1 24 25
M  V30 END BOND
M  V30 END CTAB
M  END
>  <Rack>
PathogenBox_PlateA

>  <Position>
A08

>  <Compound ID>
MMV688553

>  <Disease Set>
TUBERCULOSIS

>  <Trivial Name>


>  <Total Molecular Weight>
343.38

>  <Molecular Weight Parent Molecule>
343.38

>  <Molecular Formula>
C18H21N3O4

>  <Salt Name>


>  <Salt Coefficient>


>  <cLogP>
1.81

>  <SMILES>
O=C(NCc1cocc1)N2CCN(Cc3ccc4OCOc4c3)CC2

$$$$
Compound 8
Actelion Java MolfileCreator 2.0

  0  0  0  0  0  0              0 V3000
M  V30 BEGIN CTAB
M  V30 COUNTS 20 22 0 0 0
M  V30 BEGIN ATOM
M  V30 1 Cl 4.0487 4.7032 0.0 0
M  V30 2 C 4.2566 3.7251 0.0 0
M  V30 3 S 3.5874 2.982 0.0 0
M  V30 4 C 5.1701 3.3184 0.0 0
M  V30 5 C 4.0874 2.1159 0.0 0
M  V30 6 C 5.0656 2.3238 0.0 0
M  V30 7 C 3.6807 1.2024 0.0 0
M  V30 8 O 2.7026 0.9945 0.0 0
M  V30 9 N 4.1807 0.3364 0.0 0
M  V30 10 C 2.598 0.0 0.0 0
M  V30 11 N 3.5116 -0.4067 0.0 0
M  V30 12 N 1.732 -0.5 0.0 0
M  V30 13 C 0.866 0.0 0.0 0
M  V30 14 O 0.866 1.0 0.0 0
M  V30 15 C 0.0 -0.5 0.0 0
M  V30 16 S -0.9135 -0.0932 0.0 0
M  V30 17 C -0.1045 -1.4945 0.0 0
M  V30 18 C -1.5826 -0.8364 0.0 0
M  V30 19 C -1.0826 -1.7024 0.0 0
M  V30 20 Cl -2.5771 -0.7318 0.0 0
M  V30 END ATOM
M  V30 BEGIN BOND
M  V30 1 1 1 2
M  V30 2 1 2 3
M  V30 3 2 2 4
M  V30 4 1 3 5
M  V30 5 1 4 6
M  V30 6 1 5 7
M  V30 7 1 7 8
M  V30 8 2 7 9
M  V30 9 1 8 10
M  V30 10 1 9 11
M  V30 11 1 10 12
M  V30 12 1 12 13
M  V30 13 2 13 14
M  V30 14 1 13 15
M  V30 15 1 15 16
M  V30 16 2 15 17
M  V30 17 1 16 18
M  V30 18 1 17 19
M  V30 19 1 18 20
M  V30 20 2 5 6
M  V30 21 2 10 11
M  V30 22 2 18 19
M  V30 END BOND
M  V30 END CTAB
M  END
>  <Rack>
PathogenBox_PlateA

>  <Position>
A09

>  <Compound ID>
MMV676501

>  <Disease Set>
TUBERCULOSIS

>  <Trivial Name>


>  <Total Molecular Weight>
346.21

>  <Molecular Weight Parent Molecule>
346.21

>  <Molecular Formula>
C11H5N3O2Cl2S2

>  <Salt Name>


>  <Salt Coefficient>


>  <cLogP>
4.51

>  <SMILES>
Clc1ccc(s1)C(=O)Nc2oc(nn2)c3ccc(Cl)s3

$$$$
Compound 9
Actelion Java MolfileCreator 2.0

  0  0  0  0  0  0              0 V3000
M  V30 BEGIN CTAB
M  V30 COUNTS 24 26 0 0 0
M  V30 BEGIN ATOM
M  V30 1 Cl 5.1961 2.2499 0.0 0
M  V30 2 C 6.4951 1.5 0.0 0
M  V30 3 C 6.4951 0.0 0.0 0
M  V30 4 C 7.7942 2.25 0.0 0
M  V30 5 O 5.1961 -0.75 0.0 0
M  V30 6 C 7.7942 -0.7499 0.0 0
M  V30 7 C 9.0932 1.5 0.0 0
M  V30 8 C 3.8971 0.0 0.0 0
M  V30 9 C 9.0932 0.0 0.0 0
M  V30 10 C 2.598 -0.75 0.0 0 CFG=1
M  V30 11 C 10.3923 -0.7499 0.0 0
M  V30 12 O 2.598 -2.25 0.0 0
M  V30 13 C 1.299 0.0 0.0 0
M  V30 14 N 0.0 -0.75 0.0 0
M  V30 15 C -0.1567 -2.2417 0.0 0
M  V30 16 C -1.3703 -0.1398 0.0 0
M  V30 17 C -1.624 -2.5536 0.0 0
M  V30 18 C 0.8469 -3.3565 0.0 0
M  V30 19 N -2.374 -1.2546 0.0 0
M  V30 20 C -1.6821 1.3273 0.0 0
M  V30 21 C -2.0875 -3.9802 0.0 0
M  V30 22 C 0.3833 -4.783 0.0 0
M  V30 23 C -0.5674 2.331 0.0 0
M  V30 24 C -1.0838 -5.0949 0.0 0
M  V30 END ATOM
M  V30 BEGIN BOND
M  V30 1 1 1 2
M  V30 2 2 2 3
M  V30 3 1 2 4
M  V30 4 1 3 5
M  V30 5 1 3 6
M  V30 6 2 4 7
M  V30 7 1 5 8
M  V30 8 2 6 9
M  V30 9 1 10 8
M  V30 10 1 9 11
M  V30 11 1 10 12 CFG=1
M  V30 12 1 10 13
M  V30 13 1 13 14
M  V30 14 1 14 15
M  V30 15 1 14 16
M  V30 16 2 15 17
M  V30 17 1 15 18
M  V30 18 2 16 19
M  V30 19 1 16 20
M  V30 20 1 17 21
M  V30 21 2 18 22
M  V30 22 1 20 23
M  V30 23 2 21 24
M  V30 24 1 7 9
M  V30 25 1 17 19
M  V30 26 1 22 24
M  V30 END BOND
M  V30 BEGIN COLLECTION
M  V30 MDLV30/STERAC1 ATOMS=(1 10)
M  V30 END COLLECTION
M  V30 END CTAB
M  END
>  <Rack>
PathogenBox_PlateA

>  <Position>
A10

>  <Compound ID>
MMV676449

>  <Disease Set>
TUBERCULOSIS

>  <Trivial Name>


>  <Total Molecular Weight>
344.84

>  <Molecular Weight Parent Molecule>
344.84

>  <Molecular Formula>
C19H21N2O2Cl

>  <Salt Name>


>  <Salt Coefficient>


>  <cLogP>
3.70

>  <SMILES>
CCc1nc2ccccc2n1CC(O)COc3cc(C)ccc3Cl

$$$$
Compound 10
Actelion Java MolfileCreator 2.0

  0  0  0  0  0  0              0 V3000
M  V30 BEGIN CTAB
M  V30 COUNTS 23 25 0 0 0
M  V30 BEGIN ATOM
M  V30 1 Cl 6.4952 -3.0 0.0 0
M  V30 2 C 5.1961 -2.25 0.0 0
M  V30 3 C 5.1961 -0.75 0.0 0
M  V30 4 C 3.8971 -3.0 0.0 0
M  V30 5 C 3.8971 0.0 0.0 0
M  V30 6 C 2.598 -2.25 0.0 0
M  V30 7 C 2.598 -0.75 0.0 0
M  V30 8 S 1.299 0.0 0.0 0
M  V30 9 O 2.049 1.299 0.0 0
M  V30 10 O 0.549 1.299 0.0 0
M  V30 11 C 0.0 -0.75 0.0 0
M  V30 12 O -1.3703 -0.1398 0.0 0
M  V30 13 C -0.1567 -2.2417 0.0 0
M  V30 14 C -2.374 -1.2546 0.0 0
M  V30 15 N -1.624 -2.5536 0.0 0
M  V30 16 C 0.9579 -3.2454 0.0 0
M  V30 17 C -3.8658 -1.0978 0.0 0
M  V30 18 N 2.0726 -4.2491 0.0 0
M  V30 19 C -4.4759 0.2724 0.0 0
M  V30 20 C -4.7474 -2.3113 0.0 0
M  V30 21 C -5.9676 0.4292 0.0 0
M  V30 22 C -6.2392 -2.1545 0.0 0
M  V30 23 C -6.8493 -0.7842 0.0 0
M  V30 END ATOM
M  V30 BEGIN BOND
M  V30 1 1 1 2
M  V30 2 2 2 3
M  V30 3 1 2 4
M  V30 4 1 3 5
M  V30 5 2 4 6
M  V30 6 2 5 7
M  V30 7 1 7 8
M  V30 8 2 8 9
M  V30 9 2 8 10
M  V30 10 1 8 11
M  V30 11 1 11 12
M  V30 12 2 11 13
M  V30 13 1 12 14
M  V30 14 1 13 15
M  V30 15 1 13 16
M  V30 16 1 14 17
M  V30 17 3 16 18
M  V30 18 2 17 19
M  V30 19 1 17 20
M  V30 20 1 19 21
M  V30 21 2 20 22
M  V30 22 2 21 23
M  V30 23 1 6 7
M  V30 24 2 14 15
M  V30 25 1 22 23
M  V30 END BOND
M  V30 END CTAB
M  END
>  <Rack>
PathogenBox_PlateA

>  <Position>
A11

>  <Compound ID>
MMV676412

>  <Disease Set>
TUBERCULOSIS

>  <Trivial Name>


>  <Total Molecular Weight>
344.77

>  <Molecular Weight Parent Molecule>
344.77

>  <Molecular Formula>
C16H9N2O3ClS

>  <Salt Name>


>  <Salt Coefficient>


>  <cLogP>
3.17

>  <SMILES>
Clc1ccc(cc1)S(=O)(=O)c2oc(nc2C#N)c3ccccc3

$$$$
Compound 11
Actelion Java MolfileCreator 2.0

  0  0  0  0  0  0              0 V3000
M  V30 BEGIN CTAB
M  V30 COUNTS 23 25 0 0 0
M  V30 BEGIN ATOM
M  V30 1 F 2.6438 -4.3601 0.0 0
M  V30 2 C 1.6401 -3.2454 0.0 0
M  V30 3 F 0.5254 -4.2491 0.0 0
M  V30 4 F 0.6364 -2.1307 0.0 0
M  V30 5 C 2.7548 -2.2417 0.0 0
M  V30 6 N 4.222 -2.5536 0.0 0
M  V30 7 C 2.598 -0.75 0.0 0
M  V30 8 C 4.972 -1.2546 0.0 0
M  V30 9 N 3.9683 -0.1398 0.0 0
M  V30 10 C 1.299 0.0 0.0 0
M  V30 11 C 6.4393 -0.9427 0.0 0
M  V30 12 C 4.4319 1.2866 0.0 0
M  V30 13 O 0.0 -0.75 0.0 0
M  V30 14 N 1.299 1.4999 0.0 0
M  V30 15 O 7.443 -2.0574 0.0 0
M  V30 16 C 6.9028 0.4838 0.0 0
M  V30 17 C 5.8991 1.5985 0.0 0
M  V30 18 C 0.0 2.2499 0.0 0
M  V30 19 C 2.598 2.25 0.0 0
M  V30 20 C 8.9102 -1.7455 0.0 0
M  V30 21 C 0.0 3.7499 0.0 0
M  V30 22 C 2.598 3.75 0.0 0
M  V30 23 C 1.299 4.5 0.0 0
M  V30 END ATOM
M  V30 BEGIN BOND
M  V30 1 1 1 2
M  V30 2 1 2 3
M  V30 3 1 2 4
M  V30 4 1 2 5
M  V30 5 1 5 6
M  V30 6 2 5 7
M  V30 7 2 6 8
M  V30 8 1 7 9
M  V30 9 1 7 10
M  V30 10 1 8 11
M  V30 11 1 9 12
M  V30 12 2 10 13
M  V30 13 1 10 14
M  V30 14 1 11 15
M  V30 15 2 11 16
M  V30 16 2 12 17
M  V30 17 1 14 18
M  V30 18 1 14 19
M  V30 19 1 15 20
M  V30 20 1 18 21
M  V30 21 1 19 22
M  V30 22 1 21 23
M  V30 23 1 8 9
M  V30 24 1 16 17
M  V30 25 1 22 23
M  V30 END BOND
M  V30 END CTAB
M  END
>  <Rack>
PathogenBox_PlateA

>  <Position>
B02

>  <Compound ID>
MMV1110498

>  <Disease Set>
WOLBACHIA LF

>  <Trivial Name>


>  <Total Molecular Weight>
327.31

>  <Molecular Weight Parent Molecule>
327.31

>  <Molecular Formula>
C15H16N3O2F3

>  <Salt Name>


>  <Salt Coefficient>


>  <cLogP>
2.33

>  <SMILES>
FC(F)(F)C1=C(C(N2CCCCC2)=O)N(C=CC=C3OC)C3=N1

$$$$
Compound 12
Actelion Java MolfileCreator 2.0

  0  0  0  0  0  0              0 V3000
M  V30 BEGIN CTAB
M  V30 COUNTS 17 18 0 0 0
M  V30 BEGIN ATOM
M  V30 1 O 2.598 3.0 0.0 0
M  V30 2 C 3.4641 2.5 0.0 0
M  V30 3 C 1.732 2.5 0.0 0
M  V30 4 C 3.4641 1.5 0.0 0
M  V30 5 C 4.3301 3.0 0.0 0
M  V30 6 N 2.598 1.0 0.0 0
M  V30 7 C 4.3301 1.0 0.0 0
M  V30 8 C 5.1961 2.5 0.0 0
M  V30 9 C 2.598 0.0 0.0 0
M  V30 10 C 4.3301 0.0 0.0 0
M  V30 11 C 5.1961 1.5 0.0 0
M  V30 12 N 3.4641 -0.4999 0.0 0
M  V30 13 N 1.732 -0.5 0.0 0
M  V30 14 C 5.1961 -0.4999 0.0 0
M  V30 15 C 0.866 0.0 0.0 0
M  V30 16 N 0.866 1.0 0.0 0
M  V30 17 N 0.0 -0.5 0.0 0
M  V30 END ATOM
M  V30 BEGIN BOND
M  V30 1 1 1 2
M  V30 2 1 1 3
M  V30 3 1 2 4
M  V30 4 2 2 5
M  V30 5 2 4 6
M  V30 6 1 4 7
M  V30 7 1 5 8
M  V30 8 1 6 9
M  V30 9 2 7 10
M  V30 10 1 7 11
M  V30 11 2 9 12
M  V30 12 1 9 13
M  V30 13 1 10 14
M  V30 14 2 13 15
M  V30 15 1 15 16
M  V30 16 1 15 17
M  V30 17 2 8 11
M  V30 18 1 10 12
M  V30 END BOND
M  V30 END CTAB
M  END
>  <Rack>
PathogenBox_PlateA

>  <Position>
B03

>  <Compound ID>
MMV000907

>  <Disease Set>
MALARIA

>  <Trivial Name>


>  <Total Molecular Weight>
457.28

>  <Molecular Weight Parent Molecule>
231.25

>  <Molecular Formula>
C11H13N5O

>  <Salt Name>
Trifluoroacetate

>  <Salt Coefficient>
2

>  <cLogP>
0.57

>  <SMILES>
COc1cccc2c(C)nc(N=C(N)N)nc12

$$$$
Compound 13
Actelion Java MolfileCreator 2.0

  0  0  0  0  0  0              0 V3000
M  V30 BEGIN CTAB
M  V30 COUNTS 25 28 0 0 0
M  V30 BEGIN ATOM
M  V30 1 Cl 9.0932 -3.0 0.0 0
M  V30 2 C 7.7942 -2.2499 0.0 0
M  V30 3 C 7.7942 -0.75 0.0 0
M  V30 4 C 6.4951 -2.9999 0.0 0
M  V30 5 C 6.4951 0.0 0.0 0
M  V30 6 C 5.1961 -2.25 0.0 0
M  V30 7 C 5.1961 -0.75 0.0 0
M  V30 8 C 3.8971 0.0 0.0 0
M  V30 9 C 2.598 -0.75 0.0 0
M  V30 10 N 1.299 0.0 0.0 0
M  V30 11 C 0.0 -0.75 0.0 0
M  V30 12 N -1.299 0.0 0.0 0
M  V30 13 C 0.0 -2.2499 0.0 0
M  V30 14 N -1.6109 1.4672 0.0 0
M  V30 15 C -2.598 -0.7499 0.0 0
M  V30 16 C -1.299 -2.9999 0.0 0
M  V30 17 C -3.1026 1.624 0.0 0
M  V30 18 N -2.598 -2.2499 0.0 0
M  V30 19 N -3.7127 0.2536 0.0 0
M  V30 20 C -1.299 -4.4999 0.0 0
M  V30 21 C -2.598 -5.2499 0.0 0
M  V30 22 C 0.0 -5.25 0.0 0
M  V30 23 C -2.598 -6.7499 0.0 0
M  V30 24 C 0.0 -6.75 0.0 0
M  V30 25 C -1.299 -7.5 0.0 0
M  V30 END ATOM
M  V30 BEGIN BOND
M  V30 1 1 1 2
M  V30 2 2 2 3
M  V30 3 1 2 4
M  V30 4 1 3 5
M  V30 5 2 4 6
M  V30 6 2 5 7
M  V30 7 1 7 8
M  V30 8 1 8 9
M  V30 9 1 9 10
M  V30 10 1 10 11
M  V30 11 1 11 12
M  V30 12 2 11 13
M  V30 13 1 12 14
M  V30 14 1 12 15
M  V30 15 1 13 16
M  V30 16 2 14 17
M  V30 17 1 15 18
M  V30 18 2 15 19
M  V30 19 1 16 20
M  V30 20 2 20 21
M  V30 21 1 20 22
M  V30 22 1 21 23
M  V30 23 2 22 24
M  V30 24 2 23 25
M  V30 25 1 6 7
M  V30 26 2 16 18
M  V30 27 1 17 19
M  V30 28 1 24 25
M  V30 END BOND
M  V30 END CTAB
M  END
>  <Rack>
PathogenBox_PlateA

>  <Position>
B04

>  <Compound ID>
MMV688889

>  <Disease Set>
TUBERCULOSIS

>  <Trivial Name>


>  <Total Molecular Weight>
349.82

>  <Molecular Weight Parent Molecule>
349.82

>  <Molecular Formula>
C19H16N5Cl

>  <Salt Name>


>  <Salt Coefficient>


>  <cLogP>
3.46

>  <SMILES>
Clc1ccc(CCNc2cc(nc3ncnn23)c4ccccc4)cc1

$$$$
Compound 14
Actelion Java MolfileCreator 2.0

  0  0  0  0  0  0              0 V3000
M  V30 BEGIN CTAB
M  V30 COUNTS 22 25 0 0 0
M  V30 BEGIN ATOM
M  V30 1 Cl 3.4641 1.4999 0.0 0
M  V30 2 C 2.598 0.9999 0.0 0
M  V30 3 C 1.732 1.4999 0.0 0
M  V30 4 C 2.598 0.0 0.0 0
M  V30 5 C 0.866 0.9999 0.0 0
M  V30 6 C 1.732 -0.5 0.0 0
M  V30 7 C 0.866 0.0 0.0 0
M  V30 8 C 0.0 -0.5 0.0 0
M  V30 9 C -0.9135 -0.0932 0.0 0
M  V30 10 C -0.1045 -1.4945 0.0 0
M  V30 11 N -1.5826 -0.8364 0.0 0
M  V30 12 N -1.2225 0.8577 0.0 0
M  V30 13 N -1.0826 -1.7024 0.0 0
M  V30 14 C 0.6386 -2.1636 0.0 0
M  V30 15 C -2.5608 -0.6284 0.0 0
M  V30 16 C -2.2007 1.0657 0.0 0
M  V30 17 O -3.2299 -1.3716 0.0 0
M  V30 18 C -2.8698 0.3225 0.0 0
M  V30 19 C -2.5097 2.0167 0.0 0
M  V30 20 C -3.8479 0.5304 0.0 0
M  V30 21 C -3.4878 2.2246 0.0 0
M  V30 22 C -4.157 1.4815 0.0 0
M  V30 END ATOM
M  V30 BEGIN BOND
M  V30 1 1 1 2
M  V30 2 2 2 3
M  V30 3 1 2 4
M  V30 4 1 3 5
M  V30 5 2 4 6
M  V30 6 2 5 7
M  V30 7 1 7 8
M  V30 8 2 8 9
M  V30 9 1 8 10
M  V30 10 1 9 11
M  V30 11 1 9 12
M  V30 12 2 10 13
M  V30 13 1 10 14
M  V30 14 1 11 15
M  V30 15 1 12 16
M  V30 16 2 15 17
M  V30 17 1 15 18
M  V30 18 1 16 19
M  V30 19 1 18 20
M  V30 20 1 19 21
M  V30 21 1 20 22
M  V30 22 1 6 7
M  V30 23 1 11 13
M  V30 24 2 16 18
M  V30 25 1 21 22
M  V30 END BOND
M  V30 END CTAB
M  END
>  <Rack>
PathogenBox_PlateA

>  <Position>
B05

>  <Compound ID>
MMV688776

>  <Disease Set>
KINETOPLASTIDS

>  <Trivial Name>


>  <Total Molecular Weight>
313.78

>  <Molecular Weight Parent Molecule>
313.78

>  <Molecular Formula>
C17H16N3OCl

>  <Salt Name>


>  <Salt Coefficient>


>  <cLogP>
3.90

>  <SMILES>
Cc1nn2C(=O)C3=C(CCCC3)Nc2c1c4ccc(Cl)cc4

$$$$
Compound 15
Actelion Java MolfileCreator 2.0

  0  0  0  0  0  0              0 V3000
M  V30 BEGIN CTAB
M  V30 COUNTS 27 29 0 0 0
M  V30 BEGIN ATOM
M  V30 1 Cl 4.5855 0.8848 0.0 0
M  V30 2 C 4.3776 -0.0932 0.0 0
M  V30 3 C 3.4641 -0.5 0.0 0
M  V30 4 C 5.0467 -0.8364 0.0 0
M  V30 5 N 3.5686 -1.4945 0.0 0
M  V30 6 C 2.598 0.0 0.0 0
M  V30 7 N 4.5467 -1.7024 0.0 0
M  V30 8 C 6.0412 -0.7318 0.0 0
M  V30 9 C 2.8254 -2.1636 0.0 0
M  V30 10 O 2.598 1.0 0.0 0
M  V30 11 N 1.732 -0.5 0.0 0
M  V30 12 C 6.448 0.1816 0.0 0
M  V30 13 C 0.866 0.0 0.0 0
M  V30 14 C 0.0 -0.5 0.0 0
M  V30 15 C -0.866 0.0 0.0 0
M  V30 16 C 0.0 -1.4999 0.0 0
M  V30 17 C -1.732 -0.4999 0.0 0
M  V30 18 C -0.866 -1.9999 0.0 0
M  V30 19 C -1.732 -1.4999 0.0 0
M  V30 20 O -2.598 -1.9999 0.0 0
M  V30 21 C -2.598 -2.9999 0.0 0
M  V30 22 C -3.4641 -3.4999 0.0 0
M  V30 23 C -1.732 -3.4999 0.0 0
M  V30 24 C -3.4641 -4.4999 0.0 0
M  V30 25 C -1.732 -4.4999 0.0 0
M  V30 26 C -2.598 -4.9999 0.0 0
M  V30 27 C -2.598 -5.9999 0.0 0
M  V30 END ATOM
M  V30 BEGIN BOND
M  V30 1 1 1 2
M  V30 2 2 2 3
M  V30 3 1 2 4
M  V30 4 1 3 5
M  V30 5 1 3 6
M  V30 6 2 4 7
M  V30 7 1 4 8
M  V30 8 1 5 9
M  V30 9 2 6 10
M  V30 10 1 6 11
M  V30 11 1 8 12
M  V30 12 1 11 13
M  V30 13 1 13 14
M  V30 14 2 14 15
M  V30 15 1 14 16
M  V30 16 1 15 17
M  V30 17 2 16 18
M  V30 18 2 17 19
M  V30 19 1 19 20
M  V30 20 1 20 21
M  V30 21 2 21 22
M  V30 22 1 21 23
M  V30 23 1 22 24
M  V30 24 2 23 25
M  V30 25 2 24 26
M  V30 26 1 26 27
M  V30 27 1 5 7
M  V30 28 1 18 19
M  V30 29 1 25 26
M  V30 END BOND
M  V30 END CTAB
M  END
>  <Rack>
PathogenBox_PlateA

>  <Position>
B06

>  <Compound ID>
MMV688934

>  <Disease Set>
KINETOPLASTIDS

>  <Trivial Name>
Tolfenpyrad

>  <Total Molecular Weight>
383.87

>  <Molecular Weight Parent Molecule>
383.87

>  <Molecular Formula>
C21H22N3O2Cl

>  <Salt Name>


>  <Salt Coefficient>


>  <cLogP>
3.79

>  <SMILES>
CCc1nn(C)c(C(=O)NCc2ccc(Oc3ccc(C)cc3)cc2)c1Cl

$$$$
Compound 16
Actelion Java MolfileCreator 2.0

  0  0  0  0  0  0              0 V3000
M  V30 BEGIN CTAB
M  V30 COUNTS 27 31 0 0 0
M  V30 BEGIN ATOM
M  V30 1 O 7.7942 -2.25 0.0 0
M  V30 2 C 6.4951 -3.0 0.0 0
M  V30 3 N 5.1961 -2.25 0.0 0
M  V30 4 C 6.4951 -4.5 0.0 0
M  V30 5 C 5.1961 -0.75 0.0 0
M  V30 6 C 3.8971 -2.9999 0.0 0
M  V30 7 N 5.2816 -5.3816 0.0 0
M  V30 8 C 7.7087 -5.3816 0.0 0
M  V30 9 C 3.8971 0.0 0.0 0
M  V30 10 C 2.598 -2.25 0.0 0
M  V30 11 N 5.7451 -6.8082 0.0 0
M  V30 12 C 7.2451 -6.8082 0.0 0
M  V30 13 C 9.1759 -5.0698 0.0 0
M  V30 14 N 2.598 -0.75 0.0 0
M  V30 15 C 8.2488 -7.9229 0.0 0
M  V30 16 C 10.1796 -6.1845 0.0 0
M  V30 17 C 1.299 0.0 0.0 0
M  V30 18 C 9.7161 -7.6111 0.0 0
M  V30 19 C 0.0 -0.75 0.0 0
M  V30 20 C -1.299 0.0 0.0 0
M  V30 21 C 0.0 -2.2499 0.0 0
M  V30 22 C -2.598 -0.7499 0.0 0
M  V30 23 C -1.299 -2.9999 0.0 0
M  V30 24 O -4.0246 -0.2864 0.0 0
M  V30 25 C -2.598 -2.2499 0.0 0
M  V30 26 C -4.9063 -1.4999 0.0 0
M  V30 27 O -4.0246 -2.7135 0.0 0
M  V30 END ATOM
M  V30 BEGIN BOND
M  V30 1 2 1 2
M  V30 2 1 2 3
M  V30 3 1 2 4
M  V30 4 1 3 5
M  V30 5 1 3 6
M  V30 6 1 4 7
M  V30 7 2 4 8
M  V30 8 1 5 9
M  V30 9 1 6 10
M  V30 10 1 7 11
M  V30 11 1 8 12
M  V30 12 1 8 13
M  V30 13 1 9 14
M  V30 14 1 12 15
M  V30 15 1 13 16
M  V30 16 1 14 17
M  V30 17 1 15 18
M  V30 18 1 17 19
M  V30 19 2 19 20
M  V30 20 1 19 21
M  V30 21 1 20 22
M  V30 22 2 21 23
M  V30 23 1 22 24
M  V30 24 2 22 25
M  V30 25 1 24 26
M  V30 26 1 25 27
M  V30 27 1 10 14
M  V30 28 2 11 12
M  V30 29 1 16 18
M  V30 30 1 23 25
M  V30 31 1 26 27
M  V30 END BOND
M  V30 END CTAB
M  END
>  <Rack>
PathogenBox_PlateA

>  <Position>
B07

>  <Compound ID>
MMV676389

>  <Disease Set>
TUBERCULOSIS

>  <Trivial Name>


>  <Total Molecular Weight>
368.43

>  <Molecular Weight Parent Molecule>
368.43

>  <Molecular Formula>
C20H24N4O3

>  <Salt Name>


>  <Salt Coefficient>


>  <cLogP>
2.13

>  <SMILES>
O=C(N1CCN(Cc2ccc3OCOc3c2)CC1)c4[nH]nc5CCCCc45

$$$$
Compound 17
Actelion Java MolfileCreator 2.0

  0  0  0  0  0  0              0 V3000
M  V30 BEGIN CTAB
M  V30 COUNTS 29 32 0 0 0
M  V30 BEGIN ATOM
M  V30 1 S 0.866 -1.9999 0.0 0
M  V30 2 C 0.866 -2.9999 0.0 0
M  V30 3 C 1.732 -1.5 0.0 0
M  V30 4 N 1.732 -3.5 0.0 0
M  V30 5 N 0.0 -3.4999 0.0 0
M  V30 6 C 1.732 -0.5 0.0 0
M  V30 7 C 2.598 -1.9999 0.0 0
M  V30 8 C 2.598 -3.0 0.0 0
M  V30 9 C -0.866 -2.9999 0.0 0
M  V30 10 C 0.0 -4.4999 0.0 0
M  V30 11 N 0.866 0.0 0.0 0 CHG=1
M  V30 12 C 2.598 0.0 0.0 0
M  V30 13 C 3.4641 -1.5 0.0 0
M  V30 14 O 3.4641 -3.5 0.0 0
M  V30 15 C -1.732 -3.4999 0.0 0
M  V30 16 C -0.866 -4.9999 0.0 0
M  V30 17 O 0.866 1.0 0.0 0
M  V30 18 O 0.0 -0.5 0.0 0 CHG=-1
M  V30 19 C 3.4641 -0.5 0.0 0
M  V30 20 C -1.732 -4.4999 0.0 0
M  V30 21 C 4.3301 0.0 0.0 0
M  V30 22 O -2.6455 -4.0932 0.0 0
M  V30 23 O -1.8365 -5.4945 0.0 0
M  V30 24 F 3.8301 0.866 0.0 0
M  V30 25 F 5.1961 0.4999 0.0 0
M  V30 26 F 4.8301 -0.866 0.0 0
M  V30 27 C -3.3147 -4.8364 0.0 0 CFG=2
M  V30 28 C -2.8147 -5.7024 0.0 0
M  V30 29 C -4.3092 -4.7318 0.0 0
M  V30 END ATOM
M  V30 BEGIN BOND
M  V30 1 1 1 2
M  V30 2 1 1 3
M  V30 3 2 2 4
M  V30 4 1 2 5
M  V30 5 2 3 6
M  V30 6 1 3 7
M  V30 7 1 4 8
M  V30 8 1 5 9
M  V30 9 1 5 10
M  V30 10 1 6 11
M  V30 11 1 6 12
M  V30 12 2 7 13
M  V30 13 2 8 14
M  V30 14 1 9 15
M  V30 15 1 10 16
M  V30 16 2 11 17
M  V30 17 1 11 18
M  V30 18 2 12 19
M  V30 19 1 15 20
M  V30 20 1 19 21
M  V30 21 1 20 22
M  V30 22 1 20 23
M  V30 23 1 21 24
M  V30 24 1 21 25
M  V30 25 1 21 26
M  V30 26 1 27 22
M  V30 27 1 23 28
M  V30 28 1 27 29 CFG=3
M  V30 29 1 7 8
M  V30 30 1 13 19
M  V30 31 1 16 20
M  V30 32 1 27 28
M  V30 END BOND
M  V30 BEGIN COLLECTION
M  V30 MDLV30/STERAC1 ATOMS=(1 27)
M  V30 END COLLECTION
M  V30 END CTAB
M  END
>  <Rack>
PathogenBox_PlateA

>  <Position>
B08

>  <Compound ID>
MMV676603

>  <Disease Set>
TUBERCULOSIS

>  <Trivial Name>


>  <Total Molecular Weight>
431.39

>  <Molecular Weight Parent Molecule>
431.39

>  <Molecular Formula>
C17H16N3O5F3S

>  <Salt Name>


>  <Salt Coefficient>


>  <cLogP>
1.29

>  <SMILES>
CC1COC2(CCN(CC2)C3=NC(=O)c4cc(cc(c4S3)[N+](=O)[O-])C(F)(F)F)O1

$$$$
Compound 18
Actelion Java MolfileCreator 2.0

  0  0  0  0  0  0              0 V3000
M  V30 BEGIN CTAB
M  V30 COUNTS 23 26 0 0 0
M  V30 BEGIN ATOM
M  V30 1 O 2.7026 0.9945 0.0 0
M  V30 2 C 2.598 0.0 0.0 0
M  V30 3 C 3.6807 1.2024 0.0 0
M  V30 4 C 3.5116 -0.4067 0.0 0
M  V30 5 C 1.732 -0.5 0.0 0
M  V30 6 C 4.1807 0.3364 0.0 0
M  V30 7 N 0.866 0.0 0.0 0
M  V30 8 C 0.0 -0.5 0.0 0
M  V30 9 N -0.866 0.0 0.0 0
M  V30 10 C 0.0 -1.4999 0.0 0
M  V30 11 C -1.732 -0.4999 0.0 0
M  V30 12 C -0.866 -1.9999 0.0 0
M  V30 13 C 0.866 -1.9999 0.0 0
M  V30 14 N -1.732 -1.4999 0.0 0
M  V30 15 N -2.598 0.0 0.0 0
M  V30 16 C -0.866 -2.9999 0.0 0
M  V30 17 C 0.866 -3.0 0.0 0
M  V30 18 C -2.598 1.0 0.0 0
M  V30 19 C -3.4641 -0.4999 0.0 0
M  V30 20 C 0.0 -3.4999 0.0 0
M  V30 21 C -3.4641 1.5 0.0 0
M  V30 22 C -4.3301 0.0 0.0 0
M  V30 23 C -4.3301 1.0 0.0 0
M  V30 END ATOM
M  V30 BEGIN BOND
M  V30 1 1 1 2
M  V30 2 1 1 3
M  V30 3 2 2 4
M  V30 4 1 2 5
M  V30 5 2 3 6
M  V30 6 1 5 7
M  V30 7 1 7 8
M  V30 8 2 8 9
M  V30 9 1 8 10
M  V30 10 1 9 11
M  V30 11 1 10 12
M  V30 12 2 10 13
M  V30 13 2 11 14
M  V30 14 1 11 15
M  V30 15 2 12 16
M  V30 16 1 13 17
M  V30 17 1 15 18
M  V30 18 1 15 19
M  V30 19 1 16 20
M  V30 20 1 18 21
M  V30 21 1 19 22
M  V30 22 1 21 23
M  V30 23 1 4 6
M  V30 24 1 12 14
M  V30 25 2 17 20
M  V30 26 1 22 23
M  V30 END BOND
M  V30 END CTAB
M  END
>  <Rack>
PathogenBox_PlateA

>  <Position>
B09

>  <Compound ID>
MMV676401

>  <Disease Set>
TUBERCULOSIS

>  <Trivial Name>


>  <Total Molecular Weight>
308.38

>  <Molecular Weight Parent Molecule>
308.38

>  <Molecular Formula>
C18H20N4O

>  <Salt Name>


>  <Salt Coefficient>


>  <cLogP>
3.22

>  <SMILES>
C(Nc1nc(nc2ccccc12)N3CCCCC3)c4occc4

$$$$
Compound 19
Actelion Java MolfileCreator 2.0

  0  0  0  0  0  0              0 V3000
M  V30 BEGIN CTAB
M  V30 COUNTS 25 27 0 0 0
M  V30 BEGIN ATOM
M  V30 1 Cl 5.3076 4.8566 0.0 0
M  V30 2 C 4.9009 3.943 0.0 0
M  V30 3 C 3.9064 3.8385 0.0 0
M  V30 4 C 5.4887 3.134 0.0 0
M  V30 5 C 3.4997 2.9249 0.0 0
M  V30 6 C 5.082 2.2205 0.0 0
M  V30 7 C 4.0874 2.1159 0.0 0
M  V30 8 C 3.6807 1.2024 0.0 0
M  V30 9 O 2.7026 0.9945 0.0 0
M  V30 10 N 4.1807 0.3364 0.0 0
M  V30 11 C 2.598 0.0 0.0 0
M  V30 12 N 3.5116 -0.4067 0.0 0
M  V30 13 N 1.732 -0.5 0.0 0
M  V30 14 C 0.866 0.0 0.0 0
M  V30 15 O 0.866 1.0 0.0 0
M  V30 16 C 0.0 -0.5 0.0 0
M  V30 17 C -0.866 0.0 0.0 0
M  V30 18 C 0.0 -1.4999 0.0 0
M  V30 19 C -1.732 -0.4999 0.0 0
M  V30 20 C -0.866 -1.9999 0.0 0
M  V30 21 C -1.732 -1.4999 0.0 0
M  V30 22 C -2.598 0.0 0.0 0
M  V30 23 F -3.098 -0.866 0.0 0
M  V30 24 F -3.4641 0.5 0.0 0
M  V30 25 F -2.098 0.866 0.0 0
M  V30 END ATOM
M  V30 BEGIN BOND
M  V30 1 1 1 2
M  V30 2 2 2 3
M  V30 3 1 2 4
M  V30 4 1 3 5
M  V30 5 2 4 6
M  V30 6 2 5 7
M  V30 7 1 7 8
M  V30 8 1 8 9
M  V30 9 2 8 10
M  V30 10 1 9 11
M  V30 11 1 10 12
M  V30 12 1 11 13
M  V30 13 1 13 14
M  V30 14 2 14 15
M  V30 15 1 14 16
M  V30 16 2 16 17
M  V30 17 1 16 18
M  V30 18 1 17 19
M  V30 19 2 18 20
M  V30 20 2 19 21
M  V30 21 1 19 22
M  V30 22 1 22 23
M  V30 23 1 22 24
M  V30 24 1 22 25
M  V30 25 1 6 7
M  V30 26 2 11 12
M  V30 27 1 20 21
M  V30 END BOND
M  V30 END CTAB
M  END
>  <Rack>
PathogenBox_PlateA

>  <Position>
B10

>  <Compound ID>
MMV102872

>  <Disease Set>
TUBERCULOSIS

>  <Trivial Name>


>  <Total Molecular Weight>
367.71

>  <Molecular Weight Parent Molecule>
367.71

>  <Molecular Formula>
C16H9N3O2ClF3

>  <Salt Name>


>  <Salt Coefficient>


>  <cLogP>
4.46

>  <SMILES>
FC(F)(F)c1cccc(c1)C(=O)Nc2oc(nn2)c3ccc(Cl)cc3

$$$$
Compound 20
Actelion Java MolfileCreator 2.0

  0  0  0  0  0  0              0 V3000
M  V30 BEGIN CTAB
M  V30 COUNTS 27 29 0 0 0
M  V30 BEGIN ATOM
M  V30 1 S 1.732 1.4999 0.0 0
M  V30 2 C 2.598 1.0 0.0 0
M  V30 3 C 0.866 1.0 0.0 0
M  V30 4 C 2.598 0.0 0.0 0
M  V30 5 C 3.4641 1.4999 0.0 0
M  V30 6 C 1.732 -0.5 0.0 0
M  V30 7 C 3.4641 -0.5 0.0 0
M  V30 8 C 4.3301 1.0 0.0 0
M  V30 9 O 1.732 -1.5 0.0 0
M  V30 10 N 0.866 0.0 0.0 0
M  V30 11 C 4.3301 0.0 0.0 0
M  V30 12 C 0.0 -0.5 0.0 0
M  V30 13 N -0.9135 -0.0932 0.0 0
M  V30 14 C -0.1045 -1.4945 0.0 0
M  V30 15 N -1.5826 -0.8364 0.0 0
M  V30 16 C -1.1214 0.8848 0.0 0
M  V30 17 C -1.0826 -1.7024 0.0 0
M  V30 18 N -0.3783 1.554 0.0 0
M  V30 19 N -2.0725 1.1939 0.0 0
M  V30 20 C -1.4894 -2.6159 0.0 0
M  V30 21 C -0.5862 2.5321 0.0 0
M  V30 22 C -2.2804 2.172 0.0 0
M  V30 23 C -1.5372 2.8411 0.0 0
M  V30 24 C 0.1569 3.2012 0.0 0
M  V30 25 O -3.2314 2.481 0.0 0
M  V30 26 C -1.7451 3.8193 0.0 0
M  V30 27 C -2.6962 4.1283 0.0 0
M  V30 END ATOM
M  V30 BEGIN BOND
M  V30 1 1 1 2
M  V30 2 1 1 3
M  V30 3 2 2 4
M  V30 4 1 2 5
M  V30 5 1 4 6
M  V30 6 1 4 7
M  V30 7 2 5 8
M  V30 8 2 6 9
M  V30 9 1 6 10
M  V30 10 2 7 11
M  V30 11 1 10 12
M  V30 12 1 12 13
M  V30 13 2 12 14
M  V30 14 1 13 15
M  V30 15 1 13 16
M  V30 16 1 14 17
M  V30 17 2 16 18
M  V30 18 1 16 19
M  V30 19 1 17 20
M  V30 20 1 18 21
M  V30 21 1 19 22
M  V30 22 2 21 23
M  V30 23 1 21 24
M  V30 24 2 22 25
M  V30 25 1 23 26
M  V30 26 1 26 27
M  V30 27 1 8 11
M  V30 28 2 15 17
M  V30 29 1 22 23
M  V30 END BOND
M  V30 END CTAB
M  END
>  <Rack>
PathogenBox_PlateA

>  <Position>
B11

>  <Compound ID>
MMV676477

>  <Disease Set>
TUBERCULOSIS

>  <Trivial Name>


>  <Total Molecular Weight>
383.47

>  <Molecular Weight Parent Molecule>
383.47

>  <Molecular Formula>
C19H21N5O2S

>  <Salt Name>


>  <Salt Coefficient>


>  <cLogP>
3.28

>  <SMILES>
CCC1=C(C)N=C(NC1=O)n2nc(C)cc2NC(=O)c3ccccc3SC

$$$$
Compound 21
Actelion Java MolfileCreator 2.0

  0  0  0  0  0  0              0 V3000
M  V30 BEGIN CTAB
M  V30 COUNTS 27 31 0 0 0
M  V30 BEGIN ATOM
M  V30 1 S 1.8365 -1.4945 0.0 0
M  V30 2 C 2.8147 -1.7024 0.0 0
M  V30 3 C 1.732 -0.5 0.0 0
M  V30 4 C 3.3147 -0.8364 0.0 0
M  V30 5 C 3.3147 -2.5684 0.0 0
M  V30 6 C 2.6455 -0.0932 0.0 0
M  V30 7 C 0.866 0.0 0.0 0
M  V30 8 C 4.3147 -0.8364 0.0 0
M  V30 9 C 4.3147 -2.5684 0.0 0
M  V30 10 N 0.0 -0.5 0.0 0
M  V30 11 C 4.8147 -1.7024 0.0 0
M  V30 12 C -0.9135 -0.0932 0.0 0
M  V30 13 C -0.1045 -1.4945 0.0 0
M  V30 14 O -1.1214 0.8848 0.0 0
M  V30 15 N -1.5826 -0.8364 0.0 0
M  V30 16 C -1.0826 -1.7024 0.0 0 CFG=2
M  V30 17 C -2.5826 -0.8364 0.0 0
M  V30 18 C -1.5826 -2.5684 0.0 0
M  V30 19 C -3.0826 -1.7024 0.0 0
M  V30 20 N -2.5826 -2.5684 0.0 0
M  V30 21 C -3.0826 -3.4344 0.0 0
M  V30 22 C -2.5826 -4.3005 0.0 0
M  V30 23 C -3.0826 -5.1665 0.0 0
M  V30 24 C -1.5826 -4.3005 0.0 0
M  V30 25 C -2.5826 -6.0325 0.0 0
M  V30 26 C -1.0826 -5.1665 0.0 0
M  V30 27 C -1.5826 -6.0325 0.0 0
M  V30 END ATOM
M  V30 BEGIN BOND
M  V30 1 1 1 2
M  V30 2 1 1 3
M  V30 3 2 2 4
M  V30 4 1 2 5
M  V30 5 2 3 6
M  V30 6 1 3 7
M  V30 7 1 4 8
M  V30 8 2 5 9
M  V30 9 1 7 10
M  V30 10 2 8 11
M  V30 11 1 10 12
M  V30 12 1 10 13
M  V30 13 2 12 14
M  V30 14 1 12 15
M  V30 15 1 16 13
M  V30 16 1 15 17
M  V30 17 1 16 18
M  V30 18 1 17 19
M  V30 19 1 18 20
M  V30 20 1 20 21
M  V30 21 1 21 22
M  V30 22 2 22 23
M  V30 23 1 22 24
M  V30 24 1 23 25
M  V30 25 2 24 26
M  V30 26 2 25 27
M  V30 27 1 4 6
M  V30 28 1 9 11
M  V30 29 1 16 15 CFG=1
M  V30 30 1 19 20
M  V30 31 1 26 27
M  V30 END BOND
M  V30 BEGIN COLLECTION
M  V30 MDLV30/STERAC1 ATOMS=(1 16)
M  V30 END COLLECTION
M  V30 END CTAB
M  END
>  <Rack>
PathogenBox_PlateA

>  <Position>
C02

>  <Compound ID>
MMV084603

>  <Disease Set>
MALARIA

>  <Trivial Name>


>  <Total Molecular Weight>
377.51

>  <Molecular Weight Parent Molecule>
377.51

>  <Molecular Formula>
C22H23N3OS

>  <Salt Name>


>  <Salt Coefficient>


>  <cLogP>
3.53

>  <SMILES>
O=C1N(Cc2cc3ccccc3s2)CC4CN(Cc5ccccc5)CCN14

$$$$
Compound 22
Actelion Java MolfileCreator 2.0

  0  0  0  0  0  0              0 V3000
M  V30 BEGIN CTAB
M  V30 COUNTS 20 22 0 0 0
M  V30 BEGIN ATOM
M  V30 1 N 3.0667 -1.5657 0.0 0
M  V30 2 C 2.0885 -1.3577 0.0 0
M  V30 3 C 3.7358 -0.8225 0.0 0
M  V30 4 N 1.4194 -2.1009 0.0 0
M  V30 5 C 1.7795 -0.4067 0.0 0
M  V30 6 N 3.4268 0.1284 0.0 0
M  V30 7 C 2.4487 0.3364 0.0 0
M  V30 8 C 0.866 0.0 0.0 0
M  V30 9 N 1.9487 1.2024 0.0 0
M  V30 10 N 0.9705 0.9945 0.0 0
M  V30 11 C 0.0 -0.5 0.0 0
M  V30 12 C 2.3554 2.1159 0.0 0
M  V30 13 C -0.866 0.0 0.0 0
M  V30 14 C 0.0 -1.4999 0.0 0
M  V30 15 C 1.4418 2.5227 0.0 0
M  V30 16 C 2.7621 3.0295 0.0 0
M  V30 17 C 3.2689 1.7092 0.0 0
M  V30 18 C -1.732 -0.4999 0.0 0
M  V30 19 C -0.866 -1.9999 0.0 0
M  V30 20 C -1.732 -1.4999 0.0 0
M  V30 END ATOM
M  V30 BEGIN BOND
M  V30 1 2 1 2
M  V30 2 1 1 3
M  V30 3 1 2 4
M  V30 4 1 2 5
M  V30 5 2 3 6
M  V30 6 2 5 7
M  V30 7 1 5 8
M  V30 8 1 7 9
M  V30 9 2 8 10
M  V30 10 1 8 11
M  V30 11 1 9 12
M  V30 12 2 11 13
M  V30 13 1 11 14
M  V30 14 1 12 15
M  V30 15 1 12 16
M  V30 16 1 12 17
M  V30 17 1 13 18
M  V30 18 2 14 19
M  V30 19 2 18 20
M  V30 20 1 6 7
M  V30 21 1 9 10
M  V30 22 1 19 20
M  V30 END BOND
M  V30 END CTAB
M  END
>  <Rack>
PathogenBox_PlateA

>  <Position>
C03

>  <Compound ID>
MMV688548

>  <Disease Set>
TOXOPLASMOSIS

>  <Trivial Name>


>  <Total Molecular Weight>
267.33

>  <Molecular Weight Parent Molecule>
267.33

>  <Molecular Formula>
C15H17N5

>  <Salt Name>


>  <Salt Coefficient>


>  <cLogP>
2.05

>  <SMILES>
CC(C)(C)n1nc(-c2ccccc2)c2c(N)ncnc12

$$$$
Compound 23
Actelion Java MolfileCreator 2.0

  0  0  0  0  0  0              0 V3000
M  V30 BEGIN CTAB
M  V30 COUNTS 26 29 0 0 0
M  V30 BEGIN ATOM
M  V30 1 F 0.866 0.0 0.0 0
M  V30 2 C 0.0 -0.5 0.0 0
M  V30 3 C -0.866 0.0 0.0 0
M  V30 4 C 0.0 -1.4999 0.0 0
M  V30 5 C -1.732 -0.4999 0.0 0
M  V30 6 C -0.866 -1.9999 0.0 0
M  V30 7 C -1.732 -1.4999 0.0 0
M  V30 8 C -2.598 -1.9999 0.0 0
M  V30 9 N -3.4641 -1.4999 0.0 0
M  V30 10 C -2.598 -2.9999 0.0 0
M  V30 11 C -4.3301 -1.9999 0.0 0
M  V30 12 C -3.4641 -3.4999 0.0 0
M  V30 13 N -4.3301 -2.9999 0.0 0
M  V30 14 C -5.1961 -1.4999 0.0 0
M  V30 15 N -3.4641 -4.4999 0.0 0
M  V30 16 C -5.1961 -0.4999 0.0 0
M  V30 17 C -6.0621 -1.9999 0.0 0
M  V30 18 C -4.3301 -4.9999 0.0 0
M  V30 19 C -2.598 -4.9999 0.0 0
M  V30 20 C -6.0621 0.0 0.0 0
M  V30 21 C -6.9282 -1.4999 0.0 0
M  V30 22 C -4.3301 -5.9999 0.0 0
M  V30 23 C -2.598 -5.9999 0.0 0
M  V30 24 N -6.9282 -0.4999 0.0 0
M  V30 25 N -3.4641 -6.4999 0.0 0
M  V30 26 C -3.4641 -7.4999 0.0 0
M  V30 END ATOM
M  V30 BEGIN BOND
M  V30 1 1 1 2
M  V30 2 2 2 3
M  V30 3 1 2 4
M  V30 4 1 3 5
M  V30 5 2 4 6
M  V30 6 2 5 7
M  V30 7 1 7 8
M  V30 8 2 8 9
M  V30 9 1 8 10
M  V30 10 1 9 11
M  V30 11 2 10 12
M  V30 12 2 11 13
M  V30 13 1 11 14
M  V30 14 1 12 15
M  V30 15 2 14 16
M  V30 16 1 14 17
M  V30 17 1 15 18
M  V30 18 1 15 19
M  V30 19 1 16 20
M  V30 20 2 17 21
M  V30 21 1 18 22
M  V30 22 1 19 23
M  V30 23 2 20 24
M  V30 24 1 22 25
M  V30 25 1 25 26
M  V30 26 1 6 7
M  V30 27 1 12 13
M  V30 28 1 21 24
M  V30 29 1 23 25
M  V30 END BOND
M  V30 END CTAB
M  END
>  <Rack>
PathogenBox_PlateA

>  <Position>
C04

>  <Compound ID>
MMV688888

>  <Disease Set>
TUBERCULOSIS

>  <Trivial Name>


>  <Total Molecular Weight>
349.40

>  <Molecular Weight Parent Molecule>
349.40

>  <Molecular Formula>
C20H20N5F

>  <Salt Name>


>  <Salt Coefficient>


>  <cLogP>
2.72

>  <SMILES>
CN1CCN(CC1)c2cc(nc(n2)c3ccncc3)c4ccc(F)cc4

$$$$
Compound 24
Actelion Java MolfileCreator 2.0

  0  0  0  0  0  0              0 V3000
M  V30 BEGIN CTAB
M  V30 COUNTS 40 44 0 0 0
M  V30 BEGIN ATOM
M  V30 1 O 12.0239 7.2717 0.0 0
M  V30 2 C 11.1423 6.0582 0.0 0
M  V30 3 N 9.6423 6.0582 0.0 0
M  V30 4 C 11.6058 4.6316 0.0 0
M  V30 5 N 9.1787 4.6316 0.0 0
M  V30 6 C 8.7606 7.2717 0.0 0
M  V30 7 C 10.3923 3.75 0.0 0
M  V30 8 C 12.6095 3.5169 0.0 0
M  V30 9 C 13.073 4.9435 0.0 0
M  V30 10 C 9.4714 8.5926 0.0 0
M  V30 11 C 7.2847 7.0039 0.0 0
M  V30 12 C 10.3923 2.25 0.0 0
M  V30 13 C 8.8819 9.9719 0.0 0
M  V30 14 C 6.1551 7.9908 0.0 0
M  V30 15 C 9.0932 1.5 0.0 0
M  V30 16 C 11.6913 1.5 0.0 0
M  V30 17 C 7.4359 10.371 0.0 0
M  V30 18 C 6.2224 9.4893 0.0 0
M  V30 19 C 9.0932 0.0 0.0 0
M  V30 20 C 11.6913 0.0 0.0 0
M  V30 21 O 7.7942 -0.75 0.0 0
M  V30 22 C 10.3923 -0.75 0.0 0
M  V30 23 C 6.4951 0.0 0.0 0
M  V30 24 O 10.3923 -2.25 0.0 0
M  V30 25 C 5.1961 -0.75 0.0 0
M  V30 26 C 11.6913 -3.0 0.0 0
M  V30 27 C 3.8971 0.0 0.0 0
M  V30 28 C 2.598 -0.75 0.0 0
M  V30 29 O 1.299 0.0 0.0 0
M  V30 30 C 0.0 -0.75 0.0 0
M  V30 31 C -1.299 0.0 0.0 0
M  V30 32 C 0.0 -2.25 0.0 0
M  V30 33 C -2.598 -0.75 0.0 0
M  V30 34 C -1.299 -3.0 0.0 0
M  V30 35 C -2.598 -2.25 0.0 0
M  V30 36 C -3.8971 -3.0 0.0 0
M  V30 37 N -5.2674 -2.3898 0.0 0
M  V30 38 N -4.0539 -4.4917 0.0 0
M  V30 39 N -6.2711 -3.5046 0.0 0
M  V30 40 N -5.5211 -4.8036 0.0 0
M  V30 END ATOM
M  V30 BEGIN BOND
M  V30 1 2 1 2
M  V30 2 1 2 3
M  V30 3 1 2 4
M  V30 4 1 3 5
M  V30 5 1 3 6
M  V30 6 1 4 7
M  V30 7 1 4 8
M  V30 8 1 4 9
M  V30 9 1 6 10
M  V30 10 1 6 11
M  V30 11 1 7 12
M  V30 12 1 10 13
M  V30 13 1 11 14
M  V30 14 2 12 15
M  V30 15 1 12 16
M  V30 16 1 13 17
M  V30 17 1 14 18
M  V30 18 1 15 19
M  V30 19 2 16 20
M  V30 20 1 19 21
M  V30 21 2 19 22
M  V30 22 1 21 23
M  V30 23 1 22 24
M  V30 24 1 23 25
M  V30 25 1 24 26
M  V30 26 1 25 27
M  V30 27 1 27 28
M  V30 28 1 28 29
M  V30 29 1 29 30
M  V30 30 2 30 31
M  V30 31 1 30 32
M  V30 32 1 31 33
M  V30 33 2 32 34
M  V30 34 2 33 35
M  V30 35 1 35 36
M  V30 36 1 36 37
M  V30 37 2 36 38
M  V30 38 2 37 39
M  V30 39 1 38 40
M  V30 40 2 5 7
M  V30 41 1 17 18
M  V30 42 1 20 22
M  V30 43 1 34 35
M  V30 44 1 39 40
M  V30 END BOND
M  V30 END CTAB
M  END
>  <Rack>
PathogenBox_PlateA

>  <Position>
C05

>  <Compound ID>
MMV690028

>  <Disease Set>
KINETOPLASTIDS

>  <Trivial Name>


>  <Total Molecular Weight>
546.66

>  <Molecular Weight Parent Molecule>
546.66

>  <Molecular Formula>
C30H38N6O4

>  <Salt Name>


>  <Salt Coefficient>


>  <cLogP>
5.05

>  <SMILES>
COC1=C(OCCCCOC2=CC=C(C3=NNN=N3)C=C2)C=C(C4=NN(C5CCCCCC5)C(C4(C)C)=O)C=C1

$$$$
Compound 25
Actelion Java MolfileCreator 2.0

  0  0  0  0  0  0              0 V3000
M  V30 BEGIN CTAB
M  V30 COUNTS 27 30 0 0 0
M  V30 BEGIN ATOM
M  V30 1 Cl 3.8971 -4.5 0.0 0
M  V30 2 C 3.8971 -3.0 0.0 0
M  V30 3 C 5.1961 -2.25 0.0 0
M  V30 4 C 2.598 -2.25 0.0 0
M  V30 5 C 5.1961 -0.75 0.0 0
M  V30 6 C 6.4951 -3.0 0.0 0
M  V30 7 C 2.598 -0.75 0.0 0
M  V30 8 C 3.8971 0.0 0.0 0
M  V30 9 O 7.6609 -3.9439 0.0 0
M  V30 10 O 5.2371 -3.8169 0.0 0
M  V30 11 C 6.5736 -1.502 0.0 0
M  V30 12 O 1.299 0.0 0.0 0
M  V30 13 C 7.1233 -5.3443 0.0 0
M  V30 14 C 5.6254 -5.2658 0.0 0
M  V30 15 N 7.9102 -0.821 0.0 0
M  V30 16 C 0.0 -0.75 0.0 0
M  V30 17 C 7.9403 -6.6023 0.0 0
M  V30 18 N 9.2467 -1.502 0.0 0
M  V30 19 C 8.1448 0.6604 0.0 0
M  V30 20 C -1.299 0.0 0.0 0
M  V30 21 C 0.0 -2.2499 0.0 0
M  V30 22 C 10.3073 -0.4413 0.0 0
M  V30 23 N 9.6263 0.8951 0.0 0
M  V30 24 C -2.598 -0.7499 0.0 0
M  V30 25 C -1.299 -2.9999 0.0 0
M  V30 26 C -2.598 -2.2499 0.0 0
M  V30 27 Cl -3.8971 -2.9999 0.0 0
M  V30 END ATOM
M  V30 BEGIN BOND
M  V30 1 1 1 2
M  V30 2 2 2 3
M  V30 3 1 2 4
M  V30 4 1 3 5
M  V30 5 1 3 6
M  V30 6 2 4 7
M  V30 7 2 5 8
M  V30 8 1 6 9
M  V30 9 1 6 10
M  V30 10 1 6 11
M  V30 11 1 7 12
M  V30 12 1 9 13
M  V30 13 1 10 14
M  V30 14 1 11 15
M  V30 15 1 12 16
M  V30 16 1 13 17
M  V30 17 1 15 18
M  V30 18 1 15 19
M  V30 19 2 16 20
M  V30 20 1 16 21
M  V30 21 2 18 22
M  V30 22 2 19 23
M  V30 23 1 20 24
M  V30 24 2 21 25
M  V30 25 2 24 26
M  V30 26 1 26 27
M  V30 27 1 7 8
M  V30 28 1 13 14
M  V30 29 1 22 23
M  V30 30 1 25 26
M  V30 END BOND
M  V30 END CTAB
M  END
>  <Rack>
PathogenBox_PlateA

>  <Position>
C06

>  <Compound ID>
MMV688943

>  <Disease Set>
KINETOPLASTIDS

>  <Trivial Name>
Difenoconazol

>  <Total Molecular Weight>
406.26

>  <Molecular Weight Parent Molecule>
406.26

>  <Molecular Formula>
C19H17N3O3Cl2

>  <Salt Name>


>  <Salt Coefficient>


>  <cLogP>
3.55

>  <SMILES>
CC1COC(Cn2cncn2)(O1)c3ccc(Oc4ccc(Cl)cc4)cc3Cl

$$$$
Compound 26
Actelion Java MolfileCreator 2.0

  0  0  0  0  0  0              0 V3000
M  V30 BEGIN CTAB
M  V30 COUNTS 19 20 0 0 0
M  V30 BEGIN ATOM
M  V30 1 O 3.4641 -0.5 0.0 0
M  V30 2 C 2.598 0.0 0.0 0
M  V30 3 N 2.598 1.0 0.0 0
M  V30 4 C 1.732 -0.5 0.0 0
M  V30 5 O 0.866 0.0 0.0 0
M  V30 6 C 0.0 -0.5 0.0 0
M  V30 7 C -0.866 0.0 0.0 0
M  V30 8 C 0.0 -1.4999 0.0 0
M  V30 9 C -1.732 -0.4999 0.0 0
M  V30 10 C -0.866 -1.9999 0.0 0
M  V30 11 C -1.732 -1.4999 0.0 0
M  V30 12 C -2.598 -1.9999 0.0 0
M  V30 13 C -3.4641 -1.4999 0.0 0
M  V30 14 C -2.598 -2.9999 0.0 0
M  V30 15 C -4.3301 -1.9999 0.0 0
M  V30 16 C -3.4641 -3.4999 0.0 0
M  V30 17 C -4.3301 -2.9999 0.0 0
M  V30 18 C -5.1961 -3.4999 0.0 0
M  V30 19 N -6.0621 -3.9999 0.0 0
M  V30 END ATOM
M  V30 BEGIN BOND
M  V30 1 2 1 2
M  V30 2 1 2 3
M  V30 3 1 2 4
M  V30 4 1 4 5
M  V30 5 1 5 6
M  V30 6 2 6 7
M  V30 7 1 6 8
M  V30 8 1 7 9
M  V30 9 2 8 10
M  V30 10 2 9 11
M  V30 11 1 11 12
M  V30 12 2 12 13
M  V30 13 1 12 14
M  V30 14 1 13 15
M  V30 15 2 14 16
M  V30 16 2 15 17
M  V30 17 1 17 18
M  V30 18 3 18 19
M  V30 19 1 10 11
M  V30 20 1 16 17
M  V30 END BOND
M  V30 END CTAB
M  END
>  <Rack>
PathogenBox_PlateA

>  <Position>
C07

>  <Compound ID>
MMV053220

>  <Disease Set>
TUBERCULOSIS

>  <Trivial Name>


>  <Total Molecular Weight>
252.27

>  <Molecular Weight Parent Molecule>
252.27

>  <Molecular Formula>
C15H12N2O2

>  <Salt Name>


>  <Salt Coefficient>


>  <cLogP>
1.82

>  <SMILES>
NC(=O)COc1ccc(cc1)c2ccc(cc2)C#N

$$$$
Compound 27
Actelion Java MolfileCreator 2.0

  0  0  0  0  0  0              0 V3000
M  V30 BEGIN CTAB
M  V30 COUNTS 19 21 0 0 0
M  V30 BEGIN ATOM
M  V30 1 Cl 1.9594 1.6636 0.0 0
M  V30 2 C 2.7026 0.9945 0.0 0
M  V30 3 C 2.598 0.0 0.0 0
M  V30 4 C 3.6807 1.2024 0.0 0
M  V30 5 S 3.5116 -0.4067 0.0 0
M  V30 6 C 1.732 -0.5 0.0 0
M  V30 7 C 4.1807 0.3364 0.0 0
M  V30 8 C 4.1807 2.0684 0.0 0
M  V30 9 O 1.732 -1.5 0.0 0
M  V30 10 N 0.866 0.0 0.0 0
M  V30 11 C 5.1807 0.3364 0.0 0
M  V30 12 C 5.1807 2.0684 0.0 0
M  V30 13 C 0.0 -0.5 0.0 0
M  V30 14 C 5.6807 1.2024 0.0 0
M  V30 15 S -0.9135 -0.0932 0.0 0
M  V30 16 N -0.1045 -1.4945 0.0 0
M  V30 17 F 6.6807 1.2024 0.0 0
M  V30 18 C -1.5826 -0.8364 0.0 0
M  V30 19 C -1.0826 -1.7024 0.0 0
M  V30 END ATOM
M  V30 BEGIN BOND
M  V30 1 1 1 2
M  V30 2 2 2 3
M  V30 3 1 2 4
M  V30 4 1 3 5
M  V30 5 1 3 6
M  V30 6 2 4 7
M  V30 7 1 4 8
M  V30 8 2 6 9
M  V30 9 1 6 10
M  V30 10 1 7 11
M  V30 11 2 8 12
M  V30 12 1 10 13
M  V30 13 2 11 14
M  V30 14 1 13 15
M  V30 15 2 13 16
M  V30 16 1 14 17
M  V30 17 1 15 18
M  V30 18 1 16 19
M  V30 19 1 5 7
M  V30 20 1 12 14
M  V30 21 1 18 19
M  V30 END BOND
M  V30 END CTAB
M  END
>  <Rack>
PathogenBox_PlateA

>  <Position>
C08

>  <Compound ID>
MMV676584

>  <Disease Set>
TUBERCULOSIS

>  <Trivial Name>


>  <Total Molecular Weight>
314.79

>  <Molecular Weight Parent Molecule>
314.79

>  <Molecular Formula>
C12H8N2OClFS2

>  <Salt Name>


>  <Salt Coefficient>


>  <cLogP>
2.93

>  <SMILES>
Fc1ccc2c(Cl)c(sc2c1)C(=O)NC3=NCCS3

$$$$
Compound 28
Actelion Java MolfileCreator 2.0

  0  0  0  0  0  0              0 V3000
M  V30 BEGIN CTAB
M  V30 COUNTS 20 22 0 0 0
M  V30 BEGIN ATOM
M  V30 1 Cl 3.8971 -3.0 0.0 0
M  V30 2 C 5.1961 -2.25 0.0 0
M  V30 3 N 6.4951 -2.9999 0.0 0
M  V30 4 C 5.1961 -0.75 0.0 0
M  V30 5 C 7.7942 -2.2499 0.0 0
M  V30 6 C 6.4951 0.0 0.0 0
M  V30 7 C 3.8971 0.0 0.0 0
M  V30 8 C 7.7942 -0.7499 0.0 0
M  V30 9 C 9.0932 -2.9999 0.0 0
M  V30 10 N 2.598 -0.75 0.0 0
M  V30 11 C 9.0932 0.0 0.0 0
M  V30 12 C 10.3923 -2.2499 0.0 0
M  V30 13 C 1.299 0.0 0.0 0
M  V30 14 C 10.3923 -0.7499 0.0 0
M  V30 15 C 0.0 -0.75 0.0 0
M  V30 16 C 11.6913 0.0 0.0 0
M  V30 17 S -1.3703 -0.1398 0.0 0
M  V30 18 C -0.1567 -2.2417 0.0 0
M  V30 19 C -2.374 -1.2546 0.0 0
M  V30 20 C -1.624 -2.5536 0.0 0
M  V30 END ATOM
M  V30 BEGIN BOND
M  V30 1 1 1 2
M  V30 2 2 2 3
M  V30 3 1 2 4
M  V30 4 1 3 5
M  V30 5 2 4 6
M  V30 6 1 4 7
M  V30 7 1 5 8
M  V30 8 2 5 9
M  V30 9 1 7 10
M  V30 10 2 8 11
M  V30 11 1 9 12
M  V30 12 1 10 13
M  V30 13 1 11 14
M  V30 14 1 13 15
M  V30 15 1 14 16
M  V30 16 1 15 17
M  V30 17 2 15 18
M  V30 18 1 17 19
M  V30 19 1 18 20
M  V30 20 1 6 8
M  V30 21 2 12 14
M  V30 22 2 19 20
M  V30 END BOND
M  V30 END CTAB
M  END
>  <Rack>
PathogenBox_PlateA

>  <Position>
C09

>  <Compound ID>
MMV676439

>  <Disease Set>
TUBERCULOSIS

>  <Trivial Name>


>  <Total Molecular Weight>
302.82

>  <Molecular Weight Parent Molecule>
302.82

>  <Molecular Formula>
C16H15N2ClS

>  <Salt Name>


>  <Salt Coefficient>


>  <cLogP>
3.66

>  <SMILES>
Cc1ccc2nc(Cl)c(CNCc3cccs3)cc2c1

$$$$
Compound 29
Actelion Java MolfileCreator 2.0

  0  0  0  0  0  0              0 V3000
M  V30 BEGIN CTAB
M  V30 COUNTS 23 26 0 0 0
M  V30 BEGIN ATOM
M  V30 1 O 1.732 1.4999 0.0 0
M  V30 2 C 2.598 0.9999 0.0 0
M  V30 3 N 3.4641 1.5 0.0 0
M  V30 4 C 2.598 0.0 0.0 0
M  V30 5 C 4.3301 1.0 0.0 0
M  V30 6 C 3.672 2.4781 0.0 0
M  V30 7 C 3.4641 -0.4999 0.0 0
M  V30 8 C 1.732 -0.5 0.0 0
M  V30 9 C 4.3301 0.0 0.0 0
M  V30 10 C 5.0732 1.6691 0.0 0
M  V30 11 C 4.6665 2.5826 0.0 0
M  V30 12 O 3.4641 -1.5 0.0 0
M  V30 13 O 1.732 -1.5 0.0 0
M  V30 14 N 0.866 0.0 0.0 0
M  V30 15 C 5.2914 -0.3759 0.0 0
M  V30 16 C 5.9958 1.2063 0.0 0
M  V30 17 C 0.0 -0.5 0.0 0
M  V30 18 C 6.1004 0.2118 0.0 0
M  V30 19 C -0.866 0.0 0.0 0
M  V30 20 C 0.0 -1.4999 0.0 0
M  V30 21 N -1.732 -0.4999 0.0 0
M  V30 22 C -0.866 -1.9999 0.0 0
M  V30 23 C -1.732 -1.4999 0.0 0
M  V30 END ATOM
M  V30 BEGIN BOND
M  V30 1 2 1 2
M  V30 2 1 2 3
M  V30 3 1 2 4
M  V30 4 1 3 5
M  V30 5 1 3 6
M  V30 6 2 4 7
M  V30 7 1 4 8
M  V30 8 2 5 9
M  V30 9 1 5 10
M  V30 10 1 6 11
M  V30 11 1 7 12
M  V30 12 2 8 13
M  V30 13 1 8 14
M  V30 14 1 9 15
M  V30 15 2 10 16
M  V30 16 1 14 17
M  V30 17 2 15 18
M  V30 18 2 17 19
M  V30 19 1 17 20
M  V30 20 1 19 21
M  V30 21 2 20 22
M  V30 22 2 21 23
M  V30 23 1 7 9
M  V30 24 1 10 11
M  V30 25 1 16 18
M  V30 26 1 22 23
M  V30 END BOND
M  V30 END CTAB
M  END
>  <Rack>
PathogenBox_PlateA

>  <Position>
C10

>  <Compound ID>
MMV676395

>  <Disease Set>
TUBERCULOSIS

>  <Trivial Name>


>  <Total Molecular Weight>
307.30

>  <Molecular Weight Parent Molecule>
307.30

>  <Molecular Formula>
C17H13N3O3

>  <Salt Name>


>  <Salt Coefficient>


>  <cLogP>
0.99

>  <SMILES>
OC1=C(C(=O)Nc2cccnc2)C(=O)N3CCc4cccc1c34

$$$$
Compound 30
Actelion Java MolfileCreator 2.0

  0  0  0  0  0  0              0 V3000
M  V30 BEGIN CTAB
M  V30 COUNTS 19 20 0 0 0
M  V30 BEGIN ATOM
M  V30 1 Br 6.0621 -1.9999 0.0 0
M  V30 2 C 5.1961 -1.4999 0.0 0
M  V30 3 C 5.1961 -0.5 0.0 0
M  V30 4 C 4.3301 -1.9999 0.0 0
M  V30 5 C 4.3301 0.0 0.0 0
M  V30 6 C 3.4641 -1.5 0.0 0
M  V30 7 C 3.4641 -0.5 0.0 0
M  V30 8 C 2.598 0.0 0.0 0
M  V30 9 O 2.598 1.0 0.0 0
M  V30 10 C 1.732 -0.5 0.0 0
M  V30 11 O 0.866 0.0 0.0 0
M  V30 12 C 0.0 -0.5 0.0 0
M  V30 13 C -0.866 0.0 0.0 0
M  V30 14 C 0.0 -1.4999 0.0 0
M  V30 15 C -1.732 -0.4999 0.0 0
M  V30 16 C -0.866 -1.9999 0.0 0
M  V30 17 O -2.598 0.0 0.0 0
M  V30 18 C -1.732 -1.4999 0.0 0
M  V30 19 C -3.4641 -0.4999 0.0 0
M  V30 END ATOM
M  V30 BEGIN BOND
M  V30 1 1 1 2
M  V30 2 2 2 3
M  V30 3 1 2 4
M  V30 4 1 3 5
M  V30 5 2 4 6
M  V30 6 2 5 7
M  V30 7 1 7 8
M  V30 8 2 8 9
M  V30 9 1 8 10
M  V30 10 1 10 11
M  V30 11 1 11 12
M  V30 12 2 12 13
M  V30 13 1 12 14
M  V30 14 1 13 15
M  V30 15 2 14 16
M  V30 16 1 15 17
M  V30 17 2 15 18
M  V30 18 1 17 19
M  V30 19 1 6 7
M  V30 20 1 16 18
M  V30 END BOND
M  V30 END CTAB
M  END
>  <Rack>
PathogenBox_PlateA

>  <Position>
C11

>  <Compound ID>
MMV676379

>  <Disease Set>
TUBERCULOSIS

>  <Trivial Name>


>  <Total Molecular Weight>
321.17

>  <Molecular Weight Parent Molecule>
321.17

>  <Molecular Formula>
C15H13O3Br

>  <Salt Name>


>  <Salt Coefficient>


>  <cLogP>
3.20

>  <SMILES>
COc1cccc(OCC(=O)c2ccc(Br)cc2)c1

$$$$
Compound 31
Actelion Java MolfileCreator 2.0

  0  0  0  0  0  0              0 V3000
M  V30 BEGIN CTAB
M  V30 COUNTS 24 27 0 0 0
M  V30 BEGIN ATOM
M  V30 1 O 6.633 -5.943 0.0 0
M  V30 2 C 7.2207 -5.134 0.0 0
M  V30 3 C 5.6384 -5.8385 0.0 0
M  V30 4 C 6.814 -4.2205 0.0 0
M  V30 5 C 5.2317 -4.9249 0.0 0
M  V30 6 C 5.8195 -4.1159 0.0 0
M  V30 7 C 5.4128 -3.2024 0.0 0
M  V30 8 N 5.9128 -2.3364 0.0 0
M  V30 9 C 4.4346 -2.9945 0.0 0
M  V30 10 N 5.2436 -1.5932 0.0 0
M  V30 11 C 4.3301 -2.0 0.0 0
M  V30 12 C 3.4641 -1.4999 0.0 0
M  V30 13 C 3.4641 -0.5 0.0 0
M  V30 14 C 2.598 -1.9999 0.0 0
M  V30 15 C 2.598 0.0 0.0 0
M  V30 16 C 1.732 -1.5 0.0 0
M  V30 17 C 1.732 -0.5 0.0 0
M  V30 18 O 0.866 0.0 0.0 0
M  V30 19 C 0.0 -0.5 0.0 0
M  V30 20 C -0.866 0.0 0.0 0
M  V30 21 C 0.0 -1.4999 0.0 0
M  V30 22 C -1.732 -0.4999 0.0 0
M  V30 23 C -0.866 -1.9999 0.0 0
M  V30 24 C -1.732 -1.4999 0.0 0
M  V30 END ATOM
M  V30 BEGIN BOND
M  V30 1 1 1 2
M  V30 2 1 1 3
M  V30 3 1 2 4
M  V30 4 1 3 5
M  V30 5 1 4 6
M  V30 6 1 6 7
M  V30 7 1 7 8
M  V30 8 2 7 9
M  V30 9 1 8 10
M  V30 10 1 9 11
M  V30 11 1 11 12
M  V30 12 2 12 13
M  V30 13 1 12 14
M  V30 14 1 13 15
M  V30 15 2 14 16
M  V30 16 2 15 17
M  V30 17 1 17 18
M  V30 18 1 18 19
M  V30 19 2 19 20
M  V30 20 1 19 21
M  V30 21 1 20 22
M  V30 22 2 21 23
M  V30 23 2 22 24
M  V30 24 1 5 6
M  V30 25 2 10 11
M  V30 26 1 16 17
M  V30 27 1 23 24
M  V30 END BOND
M  V30 END CTAB
M  END
>  <Rack>
PathogenBox_PlateA

>  <Position>
D02

>  <Compound ID>
MMV687762

>  <Disease Set>
KINETOPLASTIDS

>  <Trivial Name>


>  <Total Molecular Weight>
320.39

>  <Molecular Weight Parent Molecule>
320.39

>  <Molecular Formula>
C20H20N2O2

>  <Salt Name>


>  <Salt Coefficient>


>  <cLogP>
3.73

>  <SMILES>
C1CC(CCO1)c2cc(n[nH]2)c3ccc(Oc4ccccc4)cc3

$$$$
Compound 32
Actelion Java MolfileCreator 2.0

  0  0  0  0  0  0              0 V3000
M  V30 BEGIN CTAB
M  V30 COUNTS 24 27 0 0 0
M  V30 BEGIN ATOM
M  V30 1 S 2.7026 0.9945 0.0 0
M  V30 2 C 2.598 0.0 0.0 0
M  V30 3 C 3.6807 1.2024 0.0 0
M  V30 4 N 3.5116 -0.4067 0.0 0
M  V30 5 N 1.732 -0.5 0.0 0
M  V30 6 C 4.1807 0.3364 0.0 0
M  V30 7 C 0.866 0.0 0.0 0
M  V30 8 C 5.1752 0.2318 0.0 0
M  V30 9 O 0.866 1.0 0.0 0
M  V30 10 C 0.0 -0.5 0.0 0
M  V30 11 N 5.582 -0.6816 0.0 0
M  V30 12 C 5.763 1.0408 0.0 0
M  V30 13 C -1.0 -0.4999 0.0 0
M  V30 14 C -0.5 -1.366 0.0 0
M  V30 15 C 6.5765 -0.7861 0.0 0
M  V30 16 C 6.7575 0.9363 0.0 0
M  V30 17 C -1.866 0.0 0.0 0
M  V30 18 C 7.1643 0.0228 0.0 0
M  V30 19 C -1.866 1.0 0.0 0
M  V30 20 C -2.732 -0.4999 0.0 0
M  V30 21 F -0.9999 1.5 0.0 0
M  V30 22 C -2.732 1.5 0.0 0
M  V30 23 C -3.598 0.0 0.0 0
M  V30 24 C -3.598 1.0 0.0 0
M  V30 END ATOM
M  V30 BEGIN BOND
M  V30 1 1 1 2
M  V30 2 1 1 3
M  V30 3 2 2 4
M  V30 4 1 2 5
M  V30 5 2 3 6
M  V30 6 1 5 7
M  V30 7 1 6 8
M  V30 8 2 7 9
M  V30 9 1 7 10
M  V30 10 2 8 11
M  V30 11 1 8 12
M  V30 12 1 10 13
M  V30 13 1 10 14
M  V30 14 1 11 15
M  V30 15 2 12 16
M  V30 16 1 13 17
M  V30 17 2 15 18
M  V30 18 2 17 19
M  V30 19 1 17 20
M  V30 20 1 19 21
M  V30 21 1 19 22
M  V30 22 2 20 23
M  V30 23 2 22 24
M  V30 24 1 4 6
M  V30 25 1 13 14
M  V30 26 1 16 18
M  V30 27 1 23 24
M  V30 END BOND
M  V30 END CTAB
M  END
>  <Rack>
PathogenBox_PlateA

>  <Position>
D03

>  <Compound ID>
MMV1028806

>  <Disease Set>
MALARIA

>  <Trivial Name>


>  <Total Molecular Weight>
339.39

>  <Molecular Weight Parent Molecule>
339.39

>  <Molecular Formula>
C18H14N3OFS

>  <Salt Name>


>  <Salt Coefficient>


>  <cLogP>
3.99

>  <SMILES>
Fc1ccccc1C2CC2C(=O)Nc3nc(cs3)c4ccccn4

$$$$
Compound 33
Actelion Java MolfileCreator 2.0

  0  0  0  0  0  0              0 V3000
M  V30 BEGIN CTAB
M  V30 COUNTS 28 31 0 0 0
M  V30 BEGIN ATOM
M  V30 1 Br 7.7942 -3.0 0.0 0
M  V30 2 C 7.7942 -2.0 0.0 0
M  V30 3 C 8.6602 -1.5 0.0 0
M  V30 4 C 6.9282 -1.5 0.0 0
M  V30 5 N 8.6602 -0.5 0.0 0
M  V30 6 C 6.9282 -0.5 0.0 0
M  V30 7 C 7.7942 0.0 0.0 0
M  V30 8 C 6.0621 0.0 0.0 0
M  V30 9 N 6.0621 0.9999 0.0 0
M  V30 10 C 5.1961 -0.5 0.0 0
M  V30 11 C 5.1961 1.4999 0.0 0
M  V30 12 C 4.3301 0.0 0.0 0
M  V30 13 N 4.3301 1.0 0.0 0
M  V30 14 C 5.1961 2.4999 0.0 0
M  V30 15 N 3.4641 -0.5 0.0 0
M  V30 16 C 6.0621 2.9999 0.0 0
M  V30 17 C 4.3301 3.0 0.0 0
M  V30 18 C 2.598 0.0 0.0 0
M  V30 19 C 6.0621 3.9999 0.0 0
M  V30 20 C 4.3301 4.0 0.0 0
M  V30 21 C 1.732 -0.5 0.0 0
M  V30 22 C 5.1961 4.4999 0.0 0
M  V30 23 C 0.866 0.0 0.0 0
M  V30 24 N 0.0 -0.5 0.0 0
M  V30 25 C -0.9135 -0.0932 0.0 0
M  V30 26 C -0.1045 -1.4945 0.0 0
M  V30 27 N -1.5826 -0.8364 0.0 0
M  V30 28 C -1.0826 -1.7024 0.0 0
M  V30 END ATOM
M  V30 BEGIN BOND
M  V30 1 1 1 2
M  V30 2 2 2 3
M  V30 3 1 2 4
M  V30 4 1 3 5
M  V30 5 2 4 6
M  V30 6 2 5 7
M  V30 7 1 6 8
M  V30 8 2 8 9
M  V30 9 1 8 10
M  V30 10 1 9 11
M  V30 11 2 10 12
M  V30 12 2 11 13
M  V30 13 1 11 14
M  V30 14 1 12 15
M  V30 15 2 14 16
M  V30 16 1 14 17
M  V30 17 1 15 18
M  V30 18 1 16 19
M  V30 19 2 17 20
M  V30 20 1 18 21
M  V30 21 2 19 22
M  V30 22 1 21 23
M  V30 23 1 23 24
M  V30 24 1 24 25
M  V30 25 1 24 26
M  V30 26 2 25 27
M  V30 27 2 26 28
M  V30 28 1 6 7
M  V30 29 1 12 13
M  V30 30 1 20 22
M  V30 31 1 27 28
M  V30 END BOND
M  V30 END CTAB
M  END
>  <Rack>
PathogenBox_PlateA

>  <Position>
D04

>  <Compound ID>
MMV661713

>  <Disease Set>
TUBERCULOSIS

>  <Trivial Name>


>  <Total Molecular Weight>
435.33

>  <Molecular Weight Parent Molecule>
435.33

>  <Molecular Formula>
C21H19N6Br

>  <Salt Name>


>  <Salt Coefficient>


>  <cLogP>
3.30

>  <SMILES>
Brc1cncc(c1)c2cc(NCCCn3ccnc3)nc(n2)c4ccccc4

$$$$
Compound 34
Actelion Java MolfileCreator 2.0

  0  0  0  0  0  0              0 V3000
M  V30 BEGIN CTAB
M  V30 COUNTS 25 27 0 0 0
M  V30 BEGIN ATOM
M  V30 1 O 2.598 3.0 0.0 0
M  V30 2 C 3.4641 2.5 0.0 0
M  V30 3 N 4.3301 3.0 0.0 0
M  V30 4 C 3.4641 1.5 0.0 0
M  V30 5 C 5.1961 2.5 0.0 0
M  V30 6 C 2.598 1.0 0.0 0
M  V30 7 C 4.3301 1.0 0.0 0
M  V30 8 N 5.1961 1.5 0.0 0
M  V30 9 C 6.0621 3.0 0.0 0
M  V30 10 C 2.598 0.0 0.0 0
M  V30 11 C 4.3301 0.0 0.0 0
M  V30 12 C 6.0621 1.0 0.0 0
M  V30 13 C 6.9282 2.4999 0.0 0
M  V30 14 C 6.0621 4.0 0.0 0
M  V30 15 O 1.732 -0.5 0.0 0
M  V30 16 C 3.4641 -0.4999 0.0 0
M  V30 17 C 6.9282 1.5 0.0 0
M  V30 18 C 0.866 0.0 0.0 0
M  V30 19 C 0.0 -0.5 0.0 0
M  V30 20 C -0.9135 -0.0932 0.0 0
M  V30 21 C -0.1045 -1.4945 0.0 0
M  V30 22 O -1.5826 -0.8364 0.0 0
M  V30 23 C -1.1214 0.8848 0.0 0
M  V30 24 N -1.0826 -1.7024 0.0 0
M  V30 25 C 0.6386 -2.1636 0.0 0
M  V30 END ATOM
M  V30 BEGIN BOND
M  V30 1 2 1 2
M  V30 2 1 2 3
M  V30 3 1 2 4
M  V30 4 1 3 5
M  V30 5 2 4 6
M  V30 6 1 4 7
M  V30 7 2 5 8
M  V30 8 1 5 9
M  V30 9 1 6 10
M  V30 10 2 7 11
M  V30 11 1 8 12
M  V30 12 2 9 13
M  V30 13 1 9 14
M  V30 14 1 10 15
M  V30 15 2 10 16
M  V30 16 2 12 17
M  V30 17 1 15 18
M  V30 18 1 18 19
M  V30 19 2 19 20
M  V30 20 1 19 21
M  V30 21 1 20 22
M  V30 22 1 20 23
M  V30 23 2 21 24
M  V30 24 1 21 25
M  V30 25 1 11 16
M  V30 26 1 13 17
M  V30 27 1 22 24
M  V30 END BOND
M  V30 END CTAB
M  END
>  <Rack>
PathogenBox_PlateA

>  <Position>
D05

>  <Compound ID>
MMV688793

>  <Disease Set>
KINETOPLASTIDS

>  <Trivial Name>


>  <Total Molecular Weight>
337.37

>  <Molecular Weight Parent Molecule>
337.37

>  <Molecular Formula>
C19H19N3O3

>  <Salt Name>


>  <Salt Coefficient>


>  <cLogP>
3.06

>  <SMILES>
Cc1onc(C)c1COc2cccc(c2)C(=O)Nc3ncccc3C

$$$$
Compound 35
Actelion Java MolfileCreator 2.0

  0  0  0  0  0  0              0 V3000
M  V30 BEGIN CTAB
M  V30 COUNTS 25 27 0 0 0
M  V30 BEGIN ATOM
M  V30 1 O 2.598 0.0 0.0 0
M  V30 2 C 3.4641 -0.5 0.0 0
M  V30 3 C 1.732 -0.5 0.0 0
M  V30 4 C 3.4641 -1.5 0.0 0
M  V30 5 C 4.3301 0.0 0.0 0
M  V30 6 N 1.732 -1.5 0.0 0
M  V30 7 C 0.866 0.0 0.0 0
M  V30 8 C 4.3301 -2.0 0.0 0
M  V30 9 C 5.1961 -0.5 0.0 0
M  V30 10 N 0.923 -2.0877 0.0 0
M  V30 11 C 2.541 -2.0877 0.0 0
M  V30 12 O 0.866 1.0 0.0 0
M  V30 13 C 0.0 -0.5 0.0 0
M  V30 14 C 5.1961 -1.5 0.0 0
M  V30 15 C 1.232 -3.0388 0.0 0
M  V30 16 N 2.232 -3.0388 0.0 0
M  V30 17 C 0.4999 -1.366 0.0 0
M  V30 18 C -0.866 -0.9999 0.0 0
M  V30 19 C -0.4999 0.366 0.0 0
M  V30 20 C 6.0621 -2.0 0.0 0
M  V30 21 C 6.0621 -3.0 0.0 0
M  V30 22 C 6.9282 -1.5 0.0 0
M  V30 23 C 6.9282 -3.5 0.0 0
M  V30 24 C 7.7942 -2.0 0.0 0
M  V30 25 C 7.7942 -3.0 0.0 0
M  V30 END ATOM
M  V30 BEGIN BOND
M  V30 1 1 1 2
M  V30 2 1 1 3
M  V30 3 2 2 4
M  V30 4 1 2 5
M  V30 5 1 3 6
M  V30 6 1 3 7
M  V30 7 1 4 8
M  V30 8 2 5 9
M  V30 9 1 6 10
M  V30 10 1 6 11
M  V30 11 1 7 12
M  V30 12 1 7 13
M  V30 13 2 8 14
M  V30 14 2 10 15
M  V30 15 2 11 16
M  V30 16 1 13 17
M  V30 17 1 13 18
M  V30 18 1 13 19
M  V30 19 1 14 20
M  V30 20 2 20 21
M  V30 21 1 20 22
M  V30 22 1 21 23
M  V30 23 2 22 24
M  V30 24 2 23 25
M  V30 25 1 9 14
M  V30 26 1 15 16
M  V30 27 1 24 25
M  V30 END BOND
M  V30 END CTAB
M  END
>  <Rack>
PathogenBox_PlateA

>  <Position>
D06

>  <Compound ID>
MMV688942

>  <Disease Set>
KINETOPLASTIDS

>  <Trivial Name>
Bitertanol

>  <Total Molecular Weight>
337.42

>  <Molecular Weight Parent Molecule>
337.42

>  <Molecular Formula>
C20H23N3O2

>  <Salt Name>


>  <Salt Coefficient>


>  <cLogP>
3.74

>  <SMILES>
CC(C)(C)C(O)C(Oc1ccc(cc1)c2ccccc2)n3cncn3

$$$$
Compound 36
Actelion Java MolfileCreator 2.0

  0  0  0  0  0  0              0 V3000
M  V30 BEGIN CTAB
M  V30 COUNTS 22 23 0 0 0
M  V30 BEGIN ATOM
M  V30 1 S 6.2788 -1.7024 0.0 0
M  V30 2 N 6.7788 -0.8364 0.0 0
M  V30 3 C 5.3006 -1.4945 0.0 0
M  V30 4 C 6.1096 -0.0932 0.0 0
M  V30 5 N 4.5575 -2.1636 0.0 0
M  V30 6 C 5.1961 -0.5 0.0 0
M  V30 7 C 6.3176 0.8848 0.0 0
M  V30 8 C 4.7654 -3.1418 0.0 0
M  V30 9 C 4.3301 0.0 0.0 0
M  V30 10 O 4.3301 1.0 0.0 0
M  V30 11 N 3.4641 -0.5 0.0 0
M  V30 12 C 2.598 0.0 0.0 0
M  V30 13 C 1.732 -0.5 0.0 0
M  V30 14 O 0.866 0.0 0.0 0
M  V30 15 C 0.0 -0.5 0.0 0
M  V30 16 C -0.866 0.0 0.0 0
M  V30 17 C 0.0 -1.4999 0.0 0
M  V30 18 C -1.732 -0.4999 0.0 0
M  V30 19 C -0.866 -1.9999 0.0 0
M  V30 20 C -1.732 -1.4999 0.0 0
M  V30 21 O -2.598 -1.9999 0.0 0
M  V30 22 C -2.598 -2.9999 0.0 0
M  V30 END ATOM
M  V30 BEGIN BOND
M  V30 1 1 1 2
M  V30 2 1 1 3
M  V30 3 2 2 4
M  V30 4 1 3 5
M  V30 5 2 3 6
M  V30 6 1 4 7
M  V30 7 1 5 8
M  V30 8 1 6 9
M  V30 9 2 9 10
M  V30 10 1 9 11
M  V30 11 1 11 12
M  V30 12 1 12 13
M  V30 13 1 13 14
M  V30 14 1 14 15
M  V30 15 2 15 16
M  V30 16 1 15 17
M  V30 17 1 16 18
M  V30 18 2 17 19
M  V30 19 2 18 20
M  V30 20 1 20 21
M  V30 21 1 21 22
M  V30 22 1 4 6
M  V30 23 1 19 20
M  V30 END BOND
M  V30 END CTAB
M  END
>  <Rack>
PathogenBox_PlateA

>  <Position>
D07

>  <Compound ID>
MMV688554

>  <Disease Set>
TUBERCULOSIS

>  <Trivial Name>


>  <Total Molecular Weight>
321.39

>  <Molecular Weight Parent Molecule>
321.39

>  <Molecular Formula>
C15H19N3O3S

>  <Salt Name>


>  <Salt Coefficient>


>  <cLogP>
1.96

>  <SMILES>
CNc1snc(C)c1C(=O)NCCOc2ccc(OC)cc2

$$$$
Compound 37
Actelion Java MolfileCreator 2.0

  0  0  0  0  0  0              0 V3000
M  V30 BEGIN CTAB
M  V30 COUNTS 20 22 0 0 0
M  V30 BEGIN ATOM
M  V30 1 Cl 3.4641 2.5 0.0 0
M  V30 2 C 3.4641 1.5 0.0 0
M  V30 3 C 2.598 1.0 0.0 0
M  V30 4 C 4.3301 1.0 0.0 0
M  V30 5 C 2.598 0.0 0.0 0
M  V30 6 C 4.3301 0.0 0.0 0
M  V30 7 C 3.4641 -0.4999 0.0 0
M  V30 8 C 1.732 -0.5 0.0 0
M  V30 9 N 0.866 0.0 0.0 0
M  V30 10 C 0.0 -0.5 0.0 0
M  V30 11 N -0.866 0.0 0.0 0
M  V30 12 C 0.0 -1.4999 0.0 0
M  V30 13 N -1.732 -0.4999 0.0 0
M  V30 14 C -0.866 -1.9999 0.0 0
M  V30 15 C 0.866 -1.9999 0.0 0
M  V30 16 C -1.732 -1.4999 0.0 0
M  V30 17 C -0.866 -2.9999 0.0 0
M  V30 18 C 0.866 -3.0 0.0 0
M  V30 19 C -2.598 -1.9999 0.0 0
M  V30 20 C 0.0 -3.4999 0.0 0
M  V30 END ATOM
M  V30 BEGIN BOND
M  V30 1 1 1 2
M  V30 2 2 2 3
M  V30 3 1 2 4
M  V30 4 1 3 5
M  V30 5 2 4 6
M  V30 6 2 5 7
M  V30 7 1 5 8
M  V30 8 1 8 9
M  V30 9 1 9 10
M  V30 10 2 10 11
M  V30 11 1 10 12
M  V30 12 1 11 13
M  V30 13 1 12 14
M  V30 14 2 12 15
M  V30 15 2 13 16
M  V30 16 2 14 17
M  V30 17 1 15 18
M  V30 18 1 16 19
M  V30 19 1 17 20
M  V30 20 1 6 7
M  V30 21 1 14 16
M  V30 22 2 18 20
M  V30 END BOND
M  V30 END CTAB
M  END
>  <Rack>
PathogenBox_PlateA

>  <Position>
D08

>  <Compound ID>
MMV676555

>  <Disease Set>
TUBERCULOSIS

>  <Trivial Name>


>  <Total Molecular Weight>
283.76

>  <Molecular Weight Parent Molecule>
283.76

>  <Molecular Formula>
C16H14N3Cl

>  <Salt Name>


>  <Salt Coefficient>


>  <cLogP>
3.44

>  <SMILES>
Cc1nnc(NCc2cccc(Cl)c2)c3ccccc13

$$$$
Compound 38
Actelion Java MolfileCreator 2.0

  0  0  0  0  0  0              0 V3000
M  V30 BEGIN CTAB
M  V30 COUNTS 21 23 0 0 0
M  V30 BEGIN ATOM
M  V30 1 S 4.4346 0.9945 0.0 0
M  V30 2 C 4.3301 0.0 0.0 0
M  V30 3 C 5.4128 1.2024 0.0 0
M  V30 4 N 5.2436 -0.4067 0.0 0
M  V30 5 N 3.4641 -0.5 0.0 0
M  V30 6 C 5.9128 0.3364 0.0 0
M  V30 7 C 2.598 0.0 0.0 0
M  V30 8 O 2.598 1.0 0.0 0
M  V30 9 C 1.732 -0.5 0.0 0 CFG=1
M  V30 10 S 1.732 -1.5 0.0 0
M  V30 11 C 0.866 0.0 0.0 0
M  V30 12 C 2.598 -1.9999 0.0 0
M  V30 13 C 0.0 -0.5 0.0 0
M  V30 14 O 2.7026 -2.9945 0.0 0
M  V30 15 N 3.5116 -1.5932 0.0 0
M  V30 16 C 3.6807 -3.2024 0.0 0
M  V30 17 C 4.1807 -2.3364 0.0 0
M  V30 18 C 4.1807 -4.0684 0.0 0
M  V30 19 C 5.1807 -2.3364 0.0 0
M  V30 20 C 5.1807 -4.0684 0.0 0
M  V30 21 C 5.6807 -3.2024 0.0 0
M  V30 END ATOM
M  V30 BEGIN BOND
M  V30 1 1 1 2
M  V30 2 1 1 3
M  V30 3 2 2 4
M  V30 4 1 2 5
M  V30 5 2 3 6
M  V30 6 1 5 7
M  V30 7 2 7 8
M  V30 8 1 9 7
M  V30 9 1 9 10 CFG=1
M  V30 10 1 9 11
M  V30 11 1 10 12
M  V30 12 1 11 13
M  V30 13 1 12 14
M  V30 14 2 12 15
M  V30 15 1 14 16
M  V30 16 1 15 17
M  V30 17 1 16 18
M  V30 18 1 17 19
M  V30 19 2 18 20
M  V30 20 2 19 21
M  V30 21 1 4 6
M  V30 22 2 16 17
M  V30 23 1 20 21
M  V30 END BOND
M  V30 BEGIN COLLECTION
M  V30 MDLV30/STERAC1 ATOMS=(1 9)
M  V30 END COLLECTION
M  V30 END CTAB
M  END
>  <Rack>
PathogenBox_PlateA

>  <Position>
D09

>  <Compound ID>
MMV676383

>  <Disease Set>
TUBERCULOSIS

>  <Trivial Name>


>  <Total Molecular Weight>
319.40

>  <Molecular Weight Parent Molecule>
319.40

>  <Molecular Formula>
C14H13N3O2S2

>  <Salt Name>


>  <Salt Coefficient>


>  <cLogP>
3.76

>  <SMILES>
CCC(Sc1oc2ccccc2n1)C(=O)Nc3nccs3

$$$$
Compound 39
Actelion Java MolfileCreator 2.0

  0  0  0  0  0  0              0 V3000
M  V30 BEGIN CTAB
M  V30 COUNTS 25 28 0 0 0
M  V30 BEGIN ATOM
M  V30 1 O 3.8971 0.0 0.0 0
M  V30 2 C 2.598 -0.75 0.0 0
M  V30 3 N 2.598 -2.25 0.0 0
M  V30 4 N 1.299 0.0 0.0 0
M  V30 5 C 1.299 -3.0 0.0 0
M  V30 6 C 3.8971 -3.0 0.0 0
M  V30 7 C 0.0 -0.75 0.0 0
M  V30 8 C 1.299 -4.5 0.0 0
M  V30 9 C 3.8971 -4.4999 0.0 0
M  V30 10 C -1.299 0.0 0.0 0
M  V30 11 C 0.0 -2.2499 0.0 0
M  V30 12 N 2.598 -5.2499 0.0 0
M  V30 13 C -2.598 -0.7499 0.0 0
M  V30 14 C -1.299 -2.9999 0.0 0
M  V30 15 C 2.598 -6.75 0.0 0
M  V30 16 C -2.598 -2.2499 0.0 0
M  V30 17 C 3.8971 -7.5 0.0 0
M  V30 18 C 3.8971 -9.0 0.0 0
M  V30 19 C 5.1961 -6.75 0.0 0
M  V30 20 C 5.1961 -9.75 0.0 0
M  V30 21 C 6.4951 -7.5 0.0 0
M  V30 22 O 5.508 -11.2172 0.0 0
M  V30 23 C 6.4951 -9.0 0.0 0
M  V30 24 C 6.9998 -11.374 0.0 0
M  V30 25 O 7.6099 -10.0036 0.0 0
M  V30 END ATOM
M  V30 BEGIN BOND
M  V30 1 2 1 2
M  V30 2 1 2 3
M  V30 3 1 2 4
M  V30 4 1 3 5
M  V30 5 1 3 6
M  V30 6 1 4 7
M  V30 7 1 5 8
M  V30 8 1 6 9
M  V30 9 1 7 10
M  V30 10 1 7 11
M  V30 11 1 8 12
M  V30 12 1 10 13
M  V30 13 1 11 14
M  V30 14 1 12 15
M  V30 15 1 13 16
M  V30 16 1 15 17
M  V30 17 2 17 18
M  V30 18 1 17 19
M  V30 19 1 18 20
M  V30 20 2 19 21
M  V30 21 1 20 22
M  V30 22 2 20 23
M  V30 23 1 22 24
M  V30 24 1 23 25
M  V30 25 1 9 12
M  V30 26 1 14 16
M  V30 27 1 21 23
M  V30 28 1 24 25
M  V30 END BOND
M  V30 END CTAB
M  END
>  <Rack>
PathogenBox_PlateA

>  <Position>
D10

>  <Compound ID>
MMV676444

>  <Disease Set>
TUBERCULOSIS

>  <Trivial Name>


>  <Total Molecular Weight>
345.44

>  <Molecular Weight Parent Molecule>
345.44

>  <Molecular Formula>
C19H27N3O3

>  <Salt Name>


>  <Salt Coefficient>


>  <cLogP>
2.81

>  <SMILES>
O=C(NC1CCCCC1)N2CCN(Cc3ccc4OCOc4c3)CC2

$$$$
Compound 40
Actelion Java MolfileCreator 2.0

  0  0  0  0  0  0              0 V3000
M  V30 BEGIN CTAB
M  V30 COUNTS 23 25 0 0 0
M  V30 BEGIN ATOM
M  V30 1 S 4.4346 0.9945 0.0 0
M  V30 2 C 4.3301 0.0 0.0 0
M  V30 3 C 5.4128 1.2024 0.0 0
M  V30 4 N 5.2436 -0.4067 0.0 0
M  V30 5 N 3.4641 -0.5 0.0 0
M  V30 6 C 5.9128 0.3364 0.0 0
M  V30 7 C 2.598 0.0 0.0 0
M  V30 8 C 6.9073 0.2318 0.0 0
M  V30 9 O 2.598 1.0 0.0 0
M  V30 10 C 1.732 -0.5 0.0 0
M  V30 11 N 7.314 -0.6816 0.0 0
M  V30 12 C 7.4951 1.0408 0.0 0
M  V30 13 O 0.866 0.0 0.0 0
M  V30 14 C 8.3085 -0.7861 0.0 0
M  V30 15 C 8.4896 0.9363 0.0 0
M  V30 16 C 0.0 -0.5 0.0 0
M  V30 17 C 8.8963 0.0228 0.0 0
M  V30 18 C -0.866 0.0 0.0 0
M  V30 19 C 0.0 -1.4999 0.0 0
M  V30 20 C -1.732 -0.4999 0.0 0
M  V30 21 C -0.866 -1.9999 0.0 0
M  V30 22 F -2.598 0.0 0.0 0
M  V30 23 C -1.732 -1.4999 0.0 0
M  V30 END ATOM
M  V30 BEGIN BOND
M  V30 1 1 1 2
M  V30 2 1 1 3
M  V30 3 2 2 4
M  V30 4 1 2 5
M  V30 5 2 3 6
M  V30 6 1 5 7
M  V30 7 1 6 8
M  V30 8 2 7 9
M  V30 9 1 7 10
M  V30 10 2 8 11
M  V30 11 1 8 12
M  V30 12 1 10 13
M  V30 13 1 11 14
M  V30 14 2 12 15
M  V30 15 1 13 16
M  V30 16 2 14 17
M  V30 17 2 16 18
M  V30 18 1 16 19
M  V30 19 1 18 20
M  V30 20 2 19 21
M  V30 21 1 20 22
M  V30 22 2 20 23
M  V30 23 1 4 6
M  V30 24 1 15 17
M  V30 25 1 21 23
M  V30 END BOND
M  V30 END CTAB
M  END
>  <Rack>
PathogenBox_PlateA

>  <Position>
D11

>  <Compound ID>
MMV676409

>  <Disease Set>
TUBERCULOSIS

>  <Trivial Name>


>  <Total Molecular Weight>
329.35

>  <Molecular Weight Parent Molecule>
329.35

>  <Molecular Formula>
C16H12N3O2FS

>  <Salt Name>


>  <Salt Coefficient>


>  <cLogP>
2.95

>  <SMILES>
Fc1cccc(OCC(=O)Nc2nc(cs2)c3ccccn3)c1

$$$$
Compound 41
Actelion Java MolfileCreator 2.0

  0  0  0  0  0  0              0 V3000
M  V30 BEGIN CTAB
M  V30 COUNTS 20 22 0 0 0
M  V30 BEGIN ATOM
M  V30 1 O 5.9128 -2.3364 0.0 0
M  V30 2 N 5.2436 -1.5932 0.0 0
M  V30 3 C 5.4128 -3.2024 0.0 0
M  V30 4 C 4.3301 -2.0 0.0 0
M  V30 5 C 5.8195 -4.1159 0.0 0
M  V30 6 C 4.4346 -2.9945 0.0 0
M  V30 7 C 3.4641 -1.4999 0.0 0
M  V30 8 C 5.2317 -4.9249 0.0 0
M  V30 9 C 6.814 -4.2205 0.0 0
M  V30 10 C 3.4641 -0.5 0.0 0
M  V30 11 C 2.598 -1.9999 0.0 0
M  V30 12 C 5.6384 -5.8385 0.0 0
M  V30 13 C 7.2207 -5.134 0.0 0
M  V30 14 C 2.598 0.0 0.0 0
M  V30 15 C 1.732 -1.5 0.0 0
M  V30 16 C 6.633 -5.943 0.0 0
M  V30 17 C 1.732 -0.5 0.0 0
M  V30 18 C 0.866 0.0 0.0 0
M  V30 19 N 0.866 1.0 0.0 0
M  V30 20 N 0.0 -0.5 0.0 0
M  V30 END ATOM
M  V30 BEGIN BOND
M  V30 1 1 1 2
M  V30 2 1 1 3
M  V30 3 2 2 4
M  V30 4 1 3 5
M  V30 5 2 3 6
M  V30 6 1 4 7
M  V30 7 2 5 8
M  V30 8 1 5 9
M  V30 9 2 7 10
M  V30 10 1 7 11
M  V30 11 1 8 12
M  V30 12 2 9 13
M  V30 13 1 10 14
M  V30 14 2 11 15
M  V30 15 2 12 16
M  V30 16 2 14 17
M  V30 17 1 17 18
M  V30 18 2 18 19
M  V30 19 1 18 20
M  V30 20 1 4 6
M  V30 21 1 13 16
M  V30 22 1 15 17
M  V30 END BOND
M  V30 END CTAB
M  END
>  <Rack>
PathogenBox_PlateA

>  <Position>
E02

>  <Compound ID>
MMV688514

>  <Disease Set>
KINETOPLASTIDS

>  <Trivial Name>


>  <Total Molecular Weight>
263.29

>  <Molecular Weight Parent Molecule>
263.29

>  <Molecular Formula>
C16H13N3O

>  <Salt Name>


>  <Salt Coefficient>


>  <cLogP>
2.26

>  <SMILES>
NC(=N)c1ccc(cc1)c2cc(on2)c3ccccc3

$$$$
Compound 42
Actelion Java MolfileCreator 2.0

  0  0  0  0  0  0              0 V3000
M  V30 BEGIN CTAB
M  V30 COUNTS 23 25 0 0 0
M  V30 BEGIN ATOM
M  V30 1 Cl 9.8908 -0.0817 0.0 0
M  V30 2 C 8.8963 0.0228 0.0 0
M  V30 3 C 8.4896 0.9363 0.0 0
M  V30 4 C 8.3085 -0.7861 0.0 0
M  V30 5 C 7.4951 1.0408 0.0 0
M  V30 6 C 7.314 -0.6816 0.0 0
M  V30 7 C 6.9073 0.2318 0.0 0
M  V30 8 C 5.9128 0.3364 0.0 0
M  V30 9 C 5.4128 1.2024 0.0 0
M  V30 10 C 5.2436 -0.4067 0.0 0
M  V30 11 S 4.4346 0.9945 0.0 0
M  V30 12 C 4.3301 0.0 0.0 0
M  V30 13 C 3.4641 -0.5 0.0 0
M  V30 14 O 3.4641 -1.5 0.0 0
M  V30 15 N 2.598 0.0 0.0 0
M  V30 16 C 1.732 -0.5 0.0 0
M  V30 17 C 0.866 0.0 0.0 0
M  V30 18 C 0.0 -0.5 0.0 0
M  V30 19 N -0.9135 -0.0932 0.0 0
M  V30 20 N -0.1045 -1.4945 0.0 0
M  V30 21 C -1.5826 -0.8364 0.0 0
M  V30 22 C -1.0826 -1.7024 0.0 0
M  V30 23 C -1.4894 -2.6159 0.0 0
M  V30 END ATOM
M  V30 BEGIN BOND
M  V30 1 1 1 2
M  V30 2 2 2 3
M  V30 3 1 2 4
M  V30 4 1 3 5
M  V30 5 2 4 6
M  V30 6 2 5 7
M  V30 7 1 7 8
M  V30 8 2 8 9
M  V30 9 1 8 10
M  V30 10 1 9 11
M  V30 11 2 10 12
M  V30 12 1 12 13
M  V30 13 2 13 14
M  V30 14 1 13 15
M  V30 15 1 15 16
M  V30 16 1 16 17
M  V30 17 1 17 18
M  V30 18 2 18 19
M  V30 19 1 18 20
M  V30 20 1 19 21
M  V30 21 1 20 22
M  V30 22 1 22 23
M  V30 23 1 6 7
M  V30 24 1 11 12
M  V30 25 2 21 22
M  V30 END BOND
M  V30 END CTAB
M  END
>  <Rack>
PathogenBox_PlateA

>  <Position>
E03

>  <Compound ID>
MMV676350

>  <Disease Set>
MALARIA

>  <Trivial Name>


>  <Total Molecular Weight>
345.85

>  <Molecular Weight Parent Molecule>
345.85

>  <Molecular Formula>
C17H16N3OClS

>  <Salt Name>


>  <Salt Coefficient>


>  <cLogP>
3.53

>  <SMILES>
Cc1cnc(CCNC(=O)c2cc(cs2)c3ccc(Cl)cc3)[nH]1

$$$$
Compound 43
Actelion Java MolfileCreator 2.0

  0  0  0  0  0  0              0 V3000
M  V30 BEGIN CTAB
M  V30 COUNTS 16 17 0 0 0
M  V30 BEGIN ATOM
M  V30 1 S 0.866 0.9999 0.0 0
M  V30 2 O -0.1339 1.0 0.0 0
M  V30 3 O 1.866 0.9999 0.0 0
M  V30 4 C 0.866 0.0 0.0 0
M  V30 5 C 0.866 1.9999 0.0 0
M  V30 6 C 0.0 -0.5 0.0 0
M  V30 7 N -0.866 0.0 0.0 0
M  V30 8 C 0.0 -1.4999 0.0 0
M  V30 9 C -1.732 -0.4999 0.0 0
M  V30 10 O 0.866 -2.0 0.0 0
M  V30 11 O -0.866 -1.9999 0.0 0
M  V30 12 C -1.732 -1.4999 0.0 0
M  V30 13 C -2.598 0.0 0.0 0
M  V30 14 C -2.598 -1.9999 0.0 0
M  V30 15 C -3.4641 -0.4999 0.0 0
M  V30 16 C -3.4641 -1.4999 0.0 0
M  V30 END ATOM
M  V30 BEGIN BOND
M  V30 1 2 1 2
M  V30 2 2 1 3
M  V30 3 1 1 4
M  V30 4 1 1 5
M  V30 5 1 4 6
M  V30 6 2 6 7
M  V30 7 1 6 8
M  V30 8 1 7 9
M  V30 9 2 8 10
M  V30 10 1 8 11
M  V30 11 2 9 12
M  V30 12 1 9 13
M  V30 13 1 12 14
M  V30 14 2 13 15
M  V30 15 2 14 16
M  V30 16 1 11 12
M  V30 17 1 15 16
M  V30 END BOND
M  V30 END CTAB
M  END
>  <Rack>
PathogenBox_PlateA

>  <Position>
E04

>  <Compound ID>
MMV553002

>  <Disease Set>
TUBERCULOSIS

>  <Trivial Name>


>  <Total Molecular Weight>
239.25

>  <Molecular Weight Parent Molecule>
239.25

>  <Molecular Formula>
C10H9NO4S

>  <Salt Name>


>  <Salt Coefficient>


>  <cLogP>
-0.31

>  <SMILES>
CS(=O)(=O)CC1=Nc2ccccc2OC1=O

$$$$
Compound 44
Actelion Java MolfileCreator 2.0

  0  0  0  0  0  0              0 V3000
M  V30 BEGIN CTAB
M  V30 COUNTS 24 26 0 0 0
M  V30 BEGIN ATOM
M  V30 1 F 9.8908 -0.0817 0.0 0
M  V30 2 C 8.8963 0.0228 0.0 0
M  V30 3 C 8.4896 0.9363 0.0 0
M  V30 4 C 8.3085 -0.7861 0.0 0
M  V30 5 C 7.4951 1.0408 0.0 0
M  V30 6 C 7.314 -0.6816 0.0 0
M  V30 7 C 6.9073 0.2318 0.0 0
M  V30 8 C 5.9128 0.3364 0.0 0
M  V30 9 O 5.4128 1.2024 0.0 0
M  V30 10 N 5.2436 -0.4067 0.0 0
M  V30 11 C 4.4346 0.9945 0.0 0
M  V30 12 C 4.3301 0.0 0.0 0
M  V30 13 C 3.4641 -0.5 0.0 0
M  V30 14 C 2.598 0.0 0.0 0
M  V30 15 N 1.732 -0.5 0.0 0
M  V30 16 C 0.866 0.0 0.0 0
M  V30 17 O 0.866 1.0 0.0 0
M  V30 18 N 0.0 -0.5 0.0 0
M  V30 19 C -0.866 0.0 0.0 0 CFG=2
M  V30 20 C 0.0 -1.4999 0.0 0
M  V30 21 C -1.732 -0.4999 0.0 0
M  V30 22 C -0.866 1.0 0.0 0
M  V30 23 C -0.866 -1.9999 0.0 0
M  V30 24 C -1.732 -1.4999 0.0 0
M  V30 END ATOM
M  V30 BEGIN BOND
M  V30 1 1 1 2
M  V30 2 2 2 3
M  V30 3 1 2 4
M  V30 4 1 3 5
M  V30 5 2 4 6
M  V30 6 2 5 7
M  V30 7 1 7 8
M  V30 8 1 8 9
M  V30 9 2 8 10
M  V30 10 1 9 11
M  V30 11 1 10 12
M  V30 12 1 12 13
M  V30 13 1 13 14
M  V30 14 1 14 15
M  V30 15 1 15 16
M  V30 16 2 16 17
M  V30 17 1 16 18
M  V30 18 1 19 18
M  V30 19 1 18 20
M  V30 20 1 19 21
M  V30 21 1 19 22 CFG=3
M  V30 22 1 20 23
M  V30 23 1 21 24
M  V30 24 1 6 7
M  V30 25 2 11 12
M  V30 26 1 23 24
M  V30 END BOND
M  V30 BEGIN COLLECTION
M  V30 MDLV30/STERAC1 ATOMS=(1 19)
M  V30 END COLLECTION
M  V30 END CTAB
M  END
>  <Rack>
PathogenBox_PlateA

>  <Position>
E05

>  <Compound ID>
MMV688797

>  <Disease Set>
KINETOPLASTIDS

>  <Trivial Name>


>  <Total Molecular Weight>
331.38

>  <Molecular Weight Parent Molecule>
331.38

>  <Molecular Formula>
C18H22N3O2F

>  <Salt Name>


>  <Salt Coefficient>


>  <cLogP>
3.33

>  <SMILES>
CC1CCCCN1C(=O)NCCc2coc(n2)c3ccc(F)cc3

$$$$
Compound 45
Actelion Java MolfileCreator 2.0

  0  0  0  0  0  0              0 V3000
M  V30 BEGIN CTAB
M  V30 COUNTS 24 26 0 0 0
M  V30 BEGIN ATOM
M  V30 1 S 10.4807 -10.7755 0.0 0
M  V30 2 C 11.3624 -9.562 0.0 0
M  V30 3 C 8.989 -10.6187 0.0 0
M  V30 4 C 10.7523 -8.1917 0.0 0
M  V30 5 C 8.3789 -9.2484 0.0 0
M  V30 6 N 9.2605 -8.0349 0.0 0
M  V30 7 C 8.6504 -6.6646 0.0 0
M  V30 8 C 9.5321 -5.451 0.0 0
M  V30 9 C 7.1586 -6.5078 0.0 0
M  V30 10 F 11.0239 -5.6078 0.0 0
M  V30 11 C 8.922 -4.0807 0.0 0
M  V30 12 C 6.5485 -5.1374 0.0 0
M  V30 13 C 7.4302 -3.9239 0.0 0
M  V30 14 N 6.8201 -2.5536 0.0 0
M  V30 15 C 7.5701 -1.2546 0.0 0
M  V30 16 C 5.3529 -2.2417 0.0 0
M  V30 17 O 9.0619 -1.0978 0.0 0
M  V30 18 O 6.5664 -0.1398 0.0 0
M  V30 19 C 5.1961 -0.75 0.0 0 CFG=1
M  V30 20 C 3.8971 0.0 0.0 0
M  V30 21 N 2.598 -0.75 0.0 0
M  V30 22 C 1.299 0.0 0.0 0
M  V30 23 O 1.299 1.5 0.0 0
M  V30 24 C 0.0 -0.75 0.0 0
M  V30 END ATOM
M  V30 BEGIN BOND
M  V30 1 1 1 2
M  V30 2 1 1 3
M  V30 3 1 2 4
M  V30 4 1 3 5
M  V30 5 1 4 6
M  V30 6 1 6 7
M  V30 7 2 7 8
M  V30 8 1 7 9
M  V30 9 1 8 10
M  V30 10 1 8 11
M  V30 11 2 9 12
M  V30 12 2 11 13
M  V30 13 1 13 14
M  V30 14 1 14 15
M  V30 15 1 14 16
M  V30 16 2 15 17
M  V30 17 1 15 18
M  V30 18 1 19 16
M  V30 19 1 19 20 CFG=3
M  V30 20 1 20 21
M  V30 21 1 21 22
M  V30 22 2 22 23
M  V30 23 1 22 24
M  V30 24 1 5 6
M  V30 25 1 12 13
M  V30 26 1 18 19
M  V30 END BOND
M  V30 BEGIN COLLECTION
M  V30 MDLV30/STEABS ATOMS=(1 19)
M  V30 END COLLECTION
M  V30 END CTAB
M  END
>  <Rack>
PathogenBox_PlateA

>  <Position>
E06

>  <Compound ID>
MMV688756

>  <Disease Set>
TUBERCULOSIS

>  <Trivial Name>
Sutezolid

>  <Total Molecular Weight>
353.41

>  <Molecular Weight Parent Molecule>
353.41

>  <Molecular Formula>
C16H20N3O3FS

>  <Salt Name>


>  <Salt Coefficient>


>  <cLogP>
0.93

>  <SMILES>
CC(=O)NC[C@H]1CN(C(=O)O1)c2ccc(N3CCSCC3)c(F)c2

$$$$
Compound 46
Actelion Java MolfileCreator 2.0

  0  0  0  0  0  0              0 V3000
M  V30 BEGIN CTAB
M  V30 COUNTS 25 27 0 0 0
M  V30 BEGIN ATOM
M  V30 1 S 3.0441 -3.603 0.0 0
M  V30 2 C 4.0223 -3.8109 0.0 0
M  V30 3 C 2.5441 -4.469 0.0 0
M  V30 4 N 4.1268 -4.8054 0.0 0
M  V30 5 C 4.7654 -3.1418 0.0 0
M  V30 6 C 3.2132 -5.2121 0.0 0
M  V30 7 C 1.566 -4.6769 0.0 0
M  V30 8 O 5.7165 -3.4508 0.0 0
M  V30 9 N 4.5575 -2.1636 0.0 0
M  V30 10 C 2.9042 -6.1632 0.0 0
M  V30 11 C 1.2569 -5.628 0.0 0
M  V30 12 C 5.3006 -1.4945 0.0 0
M  V30 13 C 1.9261 -6.3711 0.0 0
M  V30 14 S 6.2788 -1.7024 0.0 0
M  V30 15 C 5.1961 -0.5 0.0 0
M  V30 16 C 6.7788 -0.8364 0.0 0
M  V30 17 C 4.3301 0.0 0.0 0
M  V30 18 C 6.1096 -0.0932 0.0 0
M  V30 19 O 3.4641 -0.5 0.0 0
M  V30 20 N 4.3301 1.0 0.0 0
M  V30 21 C 3.4641 1.5 0.0 0
M  V30 22 O 2.598 1.0 0.0 0
M  V30 23 O 3.4641 2.5 0.0 0
M  V30 24 C 2.598 3.0 0.0 0
M  V30 25 C 2.598 4.0 0.0 0
M  V30 END ATOM
M  V30 BEGIN BOND
M  V30 1 1 1 2
M  V30 2 1 1 3
M  V30 3 2 2 4
M  V30 4 1 2 5
M  V30 5 2 3 6
M  V30 6 1 3 7
M  V30 7 2 5 8
M  V30 8 1 5 9
M  V30 9 1 6 10
M  V30 10 2 7 11
M  V30 11 1 9 12
M  V30 12 2 10 13
M  V30 13 1 12 14
M  V30 14 2 12 15
M  V30 15 1 14 16
M  V30 16 1 15 17
M  V30 17 1 15 18
M  V30 18 2 17 19
M  V30 19 1 17 20
M  V30 20 1 20 21
M  V30 21 2 21 22
M  V30 22 1 21 23
M  V30 23 1 23 24
M  V30 24 1 24 25
M  V30 25 1 4 6
M  V30 26 1 11 13
M  V30 27 2 16 18
M  V30 END BOND
M  V30 END CTAB
M  END
>  <Rack>
PathogenBox_PlateA

>  <Position>
E07

>  <Compound ID>
MMV090930

>  <Disease Set>
TUBERCULOSIS

>  <Trivial Name>


>  <Total Molecular Weight>
375.42

>  <Molecular Weight Parent Molecule>
375.42

>  <Molecular Formula>
C16H13N3O4S2

>  <Salt Name>


>  <Salt Coefficient>


>  <cLogP>
2.89

>  <SMILES>
CCOC(=O)NC(=O)c1ccsc1NC(=O)c2nc3ccccc3s2

$$$$
Compound 47
Actelion Java MolfileCreator 2.0

  0  0  0  0  0  0              0 V3000
M  V30 BEGIN CTAB
M  V30 COUNTS 22 24 0 0 0
M  V30 BEGIN ATOM
M  V30 1 Cl 4.3301 -2.9999 0.0 0
M  V30 2 C 4.3301 -1.9999 0.0 0
M  V30 3 C 5.1961 -1.5 0.0 0
M  V30 4 C 3.4641 -1.5 0.0 0
M  V30 5 C 5.1961 -0.5 0.0 0
M  V30 6 C 6.0621 -2.0 0.0 0
M  V30 7 C 3.4641 -0.5 0.0 0
M  V30 8 C 4.3301 0.0 0.0 0
M  V30 9 N 2.598 0.0 0.0 0
M  V30 10 C 1.732 -0.5 0.0 0
M  V30 11 O 1.732 -1.5 0.0 0
M  V30 12 C 0.866 0.0 0.0 0
M  V30 13 C 0.0 -0.5 0.0 0 CFG=2
M  V30 14 O -0.866 0.0 0.0 0
M  V30 15 C 0.0 -1.4999 0.0 0
M  V30 16 C -1.732 -0.4999 0.0 0
M  V30 17 O -0.866 -1.9999 0.0 0
M  V30 18 C -1.732 -1.4999 0.0 0
M  V30 19 C -2.598 0.0 0.0 0
M  V30 20 C -2.598 -1.9999 0.0 0
M  V30 21 C -3.4641 -0.4999 0.0 0
M  V30 22 C -3.4641 -1.4999 0.0 0
M  V30 END ATOM
M  V30 BEGIN BOND
M  V30 1 1 1 2
M  V30 2 2 2 3
M  V30 3 1 2 4
M  V30 4 1 3 5
M  V30 5 1 3 6
M  V30 6 2 4 7
M  V30 7 2 5 8
M  V30 8 1 7 9
M  V30 9 1 9 10
M  V30 10 2 10 11
M  V30 11 1 10 12
M  V30 12 1 13 12 CFG=1
M  V30 13 1 13 14
M  V30 14 1 13 15
M  V30 15 1 14 16
M  V30 16 1 15 17
M  V30 17 2 16 18
M  V30 18 1 16 19
M  V30 19 1 18 20
M  V30 20 2 19 21
M  V30 21 2 20 22
M  V30 22 1 7 8
M  V30 23 1 17 18
M  V30 24 1 21 22
M  V30 END BOND
M  V30 BEGIN COLLECTION
M  V30 MDLV30/STERAC1 ATOMS=(1 13)
M  V30 END COLLECTION
M  V30 END CTAB
M  END
>  <Rack>
PathogenBox_PlateA

>  <Position>
E08

>  <Compound ID>
MMV676431

>  <Disease Set>
TUBERCULOSIS

>  <Trivial Name>


>  <Total Molecular Weight>
317.77

>  <Molecular Weight Parent Molecule>
317.77

>  <Molecular Formula>
C17H16NO3Cl

>  <Salt Name>


>  <Salt Coefficient>


>  <cLogP>
3.75

>  <SMILES>
Cc1ccc(NC(=O)CC2COc3ccccc3O2)cc1Cl

$$$$
Compound 48
Actelion Java MolfileCreator 2.0

  0  0  0  0  0  0              0 V3000
M  V30 BEGIN CTAB
M  V30 COUNTS 32 35 0 0 0
M  V30 BEGIN ATOM
M  V30 1 F 6.0621 -1.9999 0.0 0
M  V30 2 C 5.1961 -1.4999 0.0 0
M  V30 3 C 5.1961 -0.5 0.0 0
M  V30 4 C 4.3301 -1.9999 0.0 0
M  V30 5 C 4.3301 0.0 0.0 0
M  V30 6 C 3.4641 -1.5 0.0 0
M  V30 7 C 3.4641 -0.5 0.0 0
M  V30 8 C 2.598 0.0 0.0 0
M  V30 9 C 1.732 -0.5 0.0 0
M  V30 10 O 1.732 -1.5 0.0 0
M  V30 11 N 0.866 0.0 0.0 0
M  V30 12 C 0.0 -0.5 0.0 0
M  V30 13 C -0.866 0.0 0.0 0
M  V30 14 C 0.0 -1.4999 0.0 0
M  V30 15 C -1.732 -0.4999 0.0 0
M  V30 16 C -0.866 -1.9999 0.0 0
M  V30 17 C -2.598 0.0 0.0 0
M  V30 18 C -1.732 -1.4999 0.0 0
M  V30 19 N -2.7026 0.9945 0.0 0
M  V30 20 N -3.5116 -0.4067 0.0 0
M  V30 21 O -3.6807 1.2024 0.0 0
M  V30 22 C -4.1807 0.3364 0.0 0
M  V30 23 C -5.1752 0.2318 0.0 0
M  V30 24 C -5.763 1.0408 0.0 0
M  V30 25 C -5.582 -0.6816 0.0 0
M  V30 26 C -6.7575 0.9363 0.0 0
M  V30 27 C -6.5765 -0.7861 0.0 0
M  V30 28 O -7.3453 1.7453 0.0 0
M  V30 29 C -7.1643 0.0228 0.0 0
M  V30 30 C -8.3398 1.6408 0.0 0
M  V30 31 O -8.1588 -0.0817 0.0 0
M  V30 32 C -8.5655 -0.9952 0.0 0
M  V30 END ATOM
M  V30 BEGIN BOND
M  V30 1 1 1 2
M  V30 2 2 2 3
M  V30 3 1 2 4
M  V30 4 1 3 5
M  V30 5 2 4 6
M  V30 6 2 5 7
M  V30 7 1 7 8
M  V30 8 1 8 9
M  V30 9 2 9 10
M  V30 10 1 9 11
M  V30 11 1 11 12
M  V30 12 2 12 13
M  V30 13 1 12 14
M  V30 14 1 13 15
M  V30 15 2 14 16
M  V30 16 1 15 17
M  V30 17 2 15 18
M  V30 18 2 17 19
M  V30 19 1 17 20
M  V30 20 1 19 21
M  V30 21 2 20 22
M  V30 22 1 22 23
M  V30 23 2 23 24
M  V30 24 1 23 25
M  V30 25 1 24 26
M  V30 26 2 25 27
M  V30 27 1 26 28
M  V30 28 2 26 29
M  V30 29 1 28 30
M  V30 30 1 29 31
M  V30 31 1 31 32
M  V30 32 1 6 7
M  V30 33 1 16 18
M  V30 34 1 21 22
M  V30 35 1 27 29
M  V30 END BOND
M  V30 END CTAB
M  END
>  <Rack>
PathogenBox_PlateA

>  <Position>
E09

>  <Compound ID>
MMV676571

>  <Disease Set>
TUBERCULOSIS

>  <Trivial Name>


>  <Total Molecular Weight>
433.43

>  <Molecular Weight Parent Molecule>
433.43

>  <Molecular Formula>
C24H20N3O4F

>  <Salt Name>


>  <Salt Coefficient>


>  <cLogP>
4.34

>  <SMILES>
COc1ccc(cc1OC)c2onc(n2)c3cccc(NC(=O)Cc4ccc(F)cc4)c3

$$$$
Compound 49
Actelion Java MolfileCreator 2.0

  0  0  0  0  0  0              0 V3000
M  V30 BEGIN CTAB
M  V30 COUNTS 21 23 0 0 0
M  V30 BEGIN ATOM
M  V30 1 O 2.598 2.25 0.0 0
M  V30 2 C 3.8971 1.5 0.0 0
M  V30 3 C 3.8971 0.0 0.0 0
M  V30 4 C 5.1961 2.25 0.0 0
M  V30 5 N 2.598 -0.75 0.0 0
M  V30 6 C 5.1961 -0.75 0.0 0
M  V30 7 C 6.4951 1.5 0.0 0
M  V30 8 C 1.299 0.0 0.0 0
M  V30 9 C 6.4951 0.0 0.0 0
M  V30 10 C 0.0 -0.75 0.0 0
M  V30 11 N -1.3703 -0.1398 0.0 0
M  V30 12 N -0.1567 -2.2417 0.0 0
M  V30 13 C -2.374 -1.2546 0.0 0
M  V30 14 C -1.624 -2.5536 0.0 0
M  V30 15 C 0.9579 -3.2454 0.0 0
M  V30 16 C -3.874 -1.2546 0.0 0
M  V30 17 C -2.374 -3.8526 0.0 0
M  V30 18 C 0.646 -4.7127 0.0 0
M  V30 19 C -4.624 -2.5536 0.0 0
M  V30 20 C -3.874 -3.8526 0.0 0
M  V30 21 C 1.7607 -5.7163 0.0 0
M  V30 END ATOM
M  V30 BEGIN BOND
M  V30 1 1 1 2
M  V30 2 2 2 3
M  V30 3 1 2 4
M  V30 4 1 3 5
M  V30 5 1 3 6
M  V30 6 2 4 7
M  V30 7 1 5 8
M  V30 8 2 6 9
M  V30 9 1 8 10
M  V30 10 2 10 11
M  V30 11 1 10 12
M  V30 12 1 11 13
M  V30 13 1 12 14
M  V30 14 1 12 15
M  V30 15 1 13 16
M  V30 16 1 14 17
M  V30 17 1 15 18
M  V30 18 2 16 19
M  V30 19 2 17 20
M  V30 20 1 18 21
M  V30 21 1 7 9
M  V30 22 2 13 14
M  V30 23 1 19 20
M  V30 END BOND
M  V30 END CTAB
M  END
>  <Rack>
PathogenBox_PlateA

>  <Position>
E10

>  <Compound ID>
MMV676445

>  <Disease Set>
TUBERCULOSIS

>  <Trivial Name>


>  <Total Molecular Weight>
281.35

>  <Molecular Weight Parent Molecule>
281.35

>  <Molecular Formula>
C17H19N3O

>  <Salt Name>


>  <Salt Coefficient>


>  <cLogP>
2.71

>  <SMILES>
CCCn1c(CNc2ccccc2O)nc3ccccc13

$$$$
Compound 50
Actelion Java MolfileCreator 2.0

  0  0  0  0  0  0              0 V3000
M  V30 BEGIN CTAB
M  V30 COUNTS 27 30 0 0 0
M  V30 BEGIN ATOM
M  V30 1 O 2.598 1.0 0.0 0
M  V30 2 C 2.598 0.0 0.0 0
M  V30 3 N 3.4641 -0.5 0.0 0
M  V30 4 C 1.732 -0.5 0.0 0
M  V30 5 C 4.3301 0.0 0.0 0
M  V30 6 C 0.866 0.0 0.0 0
M  V30 7 C 5.1961 -0.4999 0.0 0
M  V30 8 C 4.3301 0.9999 0.0 0
M  V30 9 C 0.0 -0.5 0.0 0
M  V30 10 C 6.0621 0.0 0.0 0
M  V30 11 C 5.1961 1.4999 0.0 0
M  V30 12 C -0.866 0.0 0.0 0
M  V30 13 C 0.0 -1.4999 0.0 0
M  V30 14 C 6.9282 -0.5 0.0 0
M  V30 15 C 6.0621 1.0 0.0 0
M  V30 16 C -1.732 -0.4999 0.0 0
M  V30 17 C -0.866 -1.9999 0.0 0
M  V30 18 O 7.0327 -1.4945 0.0 0
M  V30 19 N 7.8417 -0.0932 0.0 0
M  V30 20 C -1.732 -1.4999 0.0 0
M  V30 21 C 8.0108 -1.7024 0.0 0
M  V30 22 N 8.5108 -0.8364 0.0 0
M  V30 23 C 8.4176 -2.6159 0.0 0
M  V30 24 O 7.9176 -3.482 0.0 0
M  V30 25 C 9.3957 -2.8238 0.0 0
M  V30 26 C 8.5867 -4.2251 0.0 0
M  V30 27 C 9.5002 -3.8184 0.0 0
M  V30 END ATOM
M  V30 BEGIN BOND
M  V30 1 2 1 2
M  V30 2 1 2 3
M  V30 3 1 2 4
M  V30 4 1 3 5
M  V30 5 1 4 6
M  V30 6 2 5 7
M  V30 7 1 5 8
M  V30 8 1 6 9
M  V30 9 1 7 10
M  V30 10 2 8 11
M  V30 11 1 9 12
M  V30 12 1 9 13
M  V30 13 1 10 14
M  V30 14 2 10 15
M  V30 15 1 12 16
M  V30 16 1 13 17
M  V30 17 1 14 18
M  V30 18 2 14 19
M  V30 19 1 16 20
M  V30 20 1 18 21
M  V30 21 1 19 22
M  V30 22 1 21 23
M  V30 23 1 23 24
M  V30 24 2 23 25
M  V30 25 1 24 26
M  V30 26 1 25 27
M  V30 27 1 11 15
M  V30 28 1 17 20
M  V30 29 2 21 22
M  V30 30 2 26 27
M  V30 END BOND
M  V30 END CTAB
M  END
>  <Rack>
PathogenBox_PlateA

>  <Position>
E11

>  <Compound ID>
MMV676589

>  <Disease Set>
TUBERCULOSIS

>  <Trivial Name>


>  <Total Molecular Weight>
365.43

>  <Molecular Weight Parent Molecule>
365.43

>  <Molecular Formula>
C21H23N3O3

>  <Salt Name>


>  <Salt Coefficient>


>  <cLogP>
4.31

>  <SMILES>
O=C(CCC1CCCCC1)Nc2cccc(c2)c3oc(nn3)c4occc4

$$$$
Compound 51
Actelion Java MolfileCreator 2.0

  0  0  0  0  0  0              0 V3000
M  V30 BEGIN CTAB
M  V30 COUNTS 30 33 0 0 0
M  V30 BEGIN ATOM
M  V30 1 S 5.0863 -8.0771 0.0 0
M  V30 2 O 4.1353 -8.3861 0.0 0
M  V30 3 O 6.0374 -7.7681 0.0 0
M  V30 4 C 4.7773 -7.126 0.0 0
M  V30 5 C 5.3953 -9.0281 0.0 0
M  V30 6 C 5.4464 -6.3829 0.0 0
M  V30 7 C 3.7992 -6.9181 0.0 0
M  V30 8 C 5.1374 -5.4318 0.0 0
M  V30 9 C 3.4901 -5.9671 0.0 0
M  V30 10 C 5.8065 -4.6887 0.0 0
M  V30 11 C 4.1593 -5.2239 0.0 0
M  V30 12 C 6.7847 -4.8966 0.0 0
M  V30 13 C 5.4975 -3.7376 0.0 0
M  V30 14 N 7.4538 -4.1534 0.0 0
M  V30 15 C 6.1667 -2.9945 0.0 0
M  V30 16 C 7.1448 -3.2024 0.0 0
M  V30 17 C 6.0621 -1.9999 0.0 0
M  V30 18 N 7.6448 -2.3364 0.0 0
M  V30 19 C 5.1961 -1.4999 0.0 0
M  V30 20 C 6.9757 -1.5932 0.0 0
M  V30 21 C 5.1961 -0.5 0.0 0
M  V30 22 C 4.3301 -1.9999 0.0 0
M  V30 23 C 4.3301 0.0 0.0 0
M  V30 24 C 3.4641 -1.5 0.0 0
M  V30 25 C 3.4641 -0.5 0.0 0
M  V30 26 C 2.598 0.0 0.0 0
M  V30 27 C 1.732 -0.5 0.0 0
M  V30 28 C 0.866 0.0 0.0 0
M  V30 29 O 0.866 1.0 0.0 0
M  V30 30 O 0.0 -0.5 0.0 0
M  V30 END ATOM
M  V30 BEGIN BOND
M  V30 1 2 1 2
M  V30 2 2 1 3
M  V30 3 1 1 4
M  V30 4 1 1 5
M  V30 5 2 4 6
M  V30 6 1 4 7
M  V30 7 1 6 8
M  V30 8 2 7 9
M  V30 9 1 8 10
M  V30 10 2 8 11
M  V30 11 2 10 12
M  V30 12 1 10 13
M  V30 13 1 12 14
M  V30 14 2 13 15
M  V30 15 2 14 16
M  V30 16 1 15 17
M  V30 17 1 16 18
M  V30 18 1 17 19
M  V30 19 2 17 20
M  V30 20 2 19 21
M  V30 21 1 19 22
M  V30 22 1 21 23
M  V30 23 2 22 24
M  V30 24 2 23 25
M  V30 25 1 25 26
M  V30 26 1 26 27
M  V30 27 1 27 28
M  V30 28 2 28 29
M  V30 29 1 28 30
M  V30 30 1 9 11
M  V30 31 1 15 16
M  V30 32 1 18 20
M  V30 33 1 24 25
M  V30 END BOND
M  V30 END CTAB
M  END
>  <Rack>
PathogenBox_PlateA

>  <Position>
F02

>  <Compound ID>
MMV026020

>  <Disease Set>
MALARIA

>  <Trivial Name>


>  <Total Molecular Weight>
420.49

>  <Molecular Weight Parent Molecule>
420.49

>  <Molecular Formula>
C23H20N2O4S

>  <Salt Name>


>  <Salt Coefficient>


>  <cLogP>
3.24

>  <SMILES>
CS(=O)(=O)c1cccc(c1)c2cnc3[nH]cc(c4ccc(CCC(=O)O)cc4)c3c2

$$$$
Compound 52
Actelion Java MolfileCreator 2.0

  0  0  0  0  0  0              0 V3000
M  V30 BEGIN CTAB
M  V30 COUNTS 26 29 0 0 0
M  V30 BEGIN ATOM
M  V30 1 O 1.732 -1.5 0.0 0
M  V30 2 C 1.732 -0.5 0.0 0
M  V30 3 N 2.598 0.0 0.0 0
M  V30 4 C 0.866 0.0 0.0 0 CFG=1
M  V30 5 C 3.4641 -0.5 0.0 0
M  V30 6 C 0.866 1.0 0.0 0
M  V30 7 C 0.0 -0.5 0.0 0
M  V30 8 C 3.4641 -1.5 0.0 0
M  V30 9 C 4.3301 0.0 0.0 0
M  V30 10 C 1.732 1.4999 0.0 0
M  V30 11 C 0.0 1.4999 0.0 0
M  V30 12 C 4.3301 -2.0 0.0 0
M  V30 13 C 5.1961 -0.5 0.0 0
M  V30 14 C 1.732 2.5 0.0 0
M  V30 15 C 0.0 2.5 0.0 0
M  V30 16 N 4.538 -2.9781 0.0 0
M  V30 17 C 5.1961 -1.5 0.0 0
M  V30 18 C 0.866 3.0 0.0 0
M  V30 19 C 5.5325 -3.0826 0.0 0
M  V30 20 O 5.9392 -2.1691 0.0 0
M  V30 21 C 6.0325 -3.9487 0.0 0
M  V30 22 C 5.5325 -4.8147 0.0 0
M  V30 23 C 7.0325 -3.9487 0.0 0
M  V30 24 C 6.0325 -5.6807 0.0 0
M  V30 25 C 7.5325 -4.8147 0.0 0
M  V30 26 N 7.0325 -5.6807 0.0 0
M  V30 END ATOM
M  V30 BEGIN BOND
M  V30 1 2 1 2
M  V30 2 1 2 3
M  V30 3 1 4 2
M  V30 4 1 3 5
M  V30 5 1 4 6
M  V30 6 1 4 7 CFG=3
M  V30 7 2 5 8
M  V30 8 1 5 9
M  V30 9 2 6 10
M  V30 10 1 6 11
M  V30 11 1 8 12
M  V30 12 2 9 13
M  V30 13 1 10 14
M  V30 14 2 11 15
M  V30 15 1 12 16
M  V30 16 2 12 17
M  V30 17 2 14 18
M  V30 18 2 16 19
M  V30 19 1 17 20
M  V30 20 1 19 21
M  V30 21 2 21 22
M  V30 22 1 21 23
M  V30 23 1 22 24
M  V30 24 2 23 25
M  V30 25 2 24 26
M  V30 26 1 13 17
M  V30 27 1 15 18
M  V30 28 1 19 20
M  V30 29 1 25 26
M  V30 END BOND
M  V30 BEGIN COLLECTION
M  V30 MDLV30/STERAC1 ATOMS=(1 4)
M  V30 END COLLECTION
M  V30 END CTAB
M  END
>  <Rack>
PathogenBox_PlateA

>  <Position>
F03

>  <Compound ID>
MMV688471

>  <Disease Set>
TOXOPLASMOSIS

>  <Trivial Name>


>  <Total Molecular Weight>
343.38

>  <Molecular Weight Parent Molecule>
343.38

>  <Molecular Formula>
C21H17N3O2

>  <Salt Name>


>  <Salt Coefficient>


>  <cLogP>
3.89

>  <SMILES>
CC(C(=O)Nc1ccc2oc(nc2c1)-c1ccncc1)c1ccccc1

$$$$
Compound 53
Actelion Java MolfileCreator 2.0

  0  0  0  0  0  0              0 V3000
M  V30 BEGIN CTAB
M  V30 COUNTS 23 25 0 0 0
M  V30 BEGIN ATOM
M  V30 1 S 2.598 -0.75 0.0 0
M  V30 2 O 1.848 -2.049 0.0 0
M  V30 3 O 3.348 -2.049 0.0 0
M  V30 4 C 3.8971 0.0 0.0 0
M  V30 5 C 1.299 0.0 0.0 0
M  V30 6 N 5.2674 -0.6101 0.0 0
M  V30 7 N 4.0539 1.4917 0.0 0
M  V30 8 C 0.0 -0.75 0.0 0
M  V30 9 N 6.2711 0.5046 0.0 0
M  V30 10 N 5.5211 1.8036 0.0 0
M  V30 11 C 2.9391 2.4954 0.0 0
M  V30 12 C -1.299 0.0 0.0 0
M  V30 13 C 0.0 -2.25 0.0 0
M  V30 14 C 3.251 3.9627 0.0 0
M  V30 15 C 1.5126 2.0319 0.0 0
M  V30 16 C -2.598 -0.75 0.0 0
M  V30 17 C -1.299 -3.0 0.0 0
M  V30 18 C 2.1363 4.9664 0.0 0
M  V30 19 C 0.3978 3.0356 0.0 0
M  V30 20 C -2.598 -2.25 0.0 0
M  V30 21 O 2.4482 6.4336 0.0 0
M  V30 22 C 0.7097 4.5028 0.0 0
M  V30 23 C 1.3334 7.4373 0.0 0
M  V30 END ATOM
M  V30 BEGIN BOND
M  V30 1 2 1 2
M  V30 2 2 1 3
M  V30 3 1 1 4
M  V30 4 1 1 5
M  V30 5 2 4 6
M  V30 6 1 4 7
M  V30 7 1 5 8
M  V30 8 1 6 9
M  V30 9 1 7 10
M  V30 10 1 7 11
M  V30 11 2 8 12
M  V30 12 1 8 13
M  V30 13 2 11 14
M  V30 14 1 11 15
M  V30 15 1 12 16
M  V30 16 2 13 17
M  V30 17 1 14 18
M  V30 18 2 15 19
M  V30 19 2 16 20
M  V30 20 1 18 21
M  V30 21 2 18 22
M  V30 22 1 21 23
M  V30 23 2 9 10
M  V30 24 1 17 20
M  V30 25 1 19 22
M  V30 END BOND
M  V30 END CTAB
M  END
>  <Rack>
PathogenBox_PlateA

>  <Position>
F04

>  <Compound ID>
MMV676388

>  <Disease Set>
TUBERCULOSIS

>  <Trivial Name>


>  <Total Molecular Weight>
330.36

>  <Molecular Weight Parent Molecule>
330.36

>  <Molecular Formula>
C15H14N4O3S

>  <Salt Name>


>  <Salt Coefficient>


>  <cLogP>
1.22

>  <SMILES>
COc1cccc(c1)n2nnnc2S(=O)(=O)Cc3ccccc3

$$$$
Compound 54
Actelion Java MolfileCreator 2.0

  0  0  0  0  0  0              0 V3000
M  V30 BEGIN CTAB
M  V30 COUNTS 20 21 0 0 0
M  V30 BEGIN ATOM
M  V30 1 O 3.4641 1.5 0.0 0
M  V30 2 C 4.3301 0.9999 0.0 0
M  V30 3 N 5.1961 1.4999 0.0 0
M  V30 4 C 4.3301 0.0 0.0 0
M  V30 5 C 6.0621 0.9999 0.0 0
M  V30 6 C 3.4641 -0.5 0.0 0
M  V30 7 C 5.1961 -0.5 0.0 0
M  V30 8 N 6.9282 1.4999 0.0 0
M  V30 9 C 6.0621 0.0 0.0 0
M  V30 10 N 2.598 0.0 0.0 0
M  V30 11 C 3.4641 -1.5 0.0 0
M  V30 12 C 5.1961 -1.5 0.0 0
M  V30 13 C 7.7942 0.9999 0.0 0
M  V30 14 C 6.9282 -0.5 0.0 0
M  V30 15 C 1.732 -0.5 0.0 0
M  V30 16 C 4.3301 -2.0 0.0 0
M  V30 17 C 7.7942 0.0 0.0 0
M  V30 18 O 1.732 -1.5 0.0 0
M  V30 19 C 0.866 0.0 0.0 0
M  V30 20 C 0.0 -0.5 0.0 0
M  V30 END ATOM
M  V30 BEGIN BOND
M  V30 1 2 1 2
M  V30 2 1 2 3
M  V30 3 1 2 4
M  V30 4 1 3 5
M  V30 5 2 4 6
M  V30 6 1 4 7
M  V30 7 2 5 8
M  V30 8 1 5 9
M  V30 9 1 6 10
M  V30 10 1 6 11
M  V30 11 2 7 12
M  V30 12 1 8 13
M  V30 13 2 9 14
M  V30 14 1 10 15
M  V30 15 2 11 16
M  V30 16 2 13 17
M  V30 17 2 15 18
M  V30 18 1 15 19
M  V30 19 1 19 20
M  V30 20 1 12 16
M  V30 21 1 14 17
M  V30 END BOND
M  V30 END CTAB
M  END
>  <Rack>
PathogenBox_PlateA

>  <Position>
F05

>  <Compound ID>
MMV202553

>  <Disease Set>
KINETOPLASTIDS

>  <Trivial Name>


>  <Total Molecular Weight>
269.30

>  <Molecular Weight Parent Molecule>
269.30

>  <Molecular Formula>
C15H15N3O2

>  <Salt Name>


>  <Salt Coefficient>


>  <cLogP>
2.32

>  <SMILES>
CCC(=O)Nc1ccccc1C(=O)Nc2ccccn2

$$$$
Compound 55
Actelion Java MolfileCreator 2.0

  0  0  0  0  0  0              0 V3000
M  V30 BEGIN CTAB
M  V30 COUNTS 26 29 0 0 0
M  V30 BEGIN ATOM
M  V30 1 Cl 5.4641 -3.9048 0.0 0
M  V30 2 C 4.4641 -3.9048 0.0 0
M  V30 3 C 3.9641 -3.0388 0.0 0
M  V30 4 C 3.9641 -4.7708 0.0 0
M  V30 5 N 4.2731 -2.0877 0.0 0
M  V30 6 C 2.9641 -3.0388 0.0 0
M  V30 7 C 2.9641 -4.7708 0.0 0
M  V30 8 C 3.4641 -1.5 0.0 0
M  V30 9 S 2.655 -2.0877 0.0 0
M  V30 10 C 2.4641 -3.9048 0.0 0
M  V30 11 N 3.4641 -0.5 0.0 0
M  V30 12 C 4.3301 0.0 0.0 0
M  V30 13 C 2.598 0.0 0.0 0
M  V30 14 O 5.1961 -0.5 0.0 0
M  V30 15 C 4.3301 1.0 0.0 0
M  V30 16 C 1.732 -0.5 0.0 0
M  V30 17 O 5.1391 1.5877 0.0 0
M  V30 18 C 3.5211 1.5877 0.0 0
M  V30 19 C 0.866 0.0 0.0 0
M  V30 20 C 4.8301 2.5388 0.0 0
M  V30 21 C 3.8301 2.5388 0.0 0
M  V30 22 N 0.0 -0.5 0.0 0
M  V30 23 C -0.9135 -0.0932 0.0 0
M  V30 24 C -0.1045 -1.4945 0.0 0
M  V30 25 N -1.5826 -0.8364 0.0 0
M  V30 26 C -1.0826 -1.7024 0.0 0
M  V30 END ATOM
M  V30 BEGIN BOND
M  V30 1 1 1 2
M  V30 2 2 2 3
M  V30 3 1 2 4
M  V30 4 1 3 5
M  V30 5 1 3 6
M  V30 6 2 4 7
M  V30 7 2 5 8
M  V30 8 1 6 9
M  V30 9 2 6 10
M  V30 10 1 8 11
M  V30 11 1 11 12
M  V30 12 1 11 13
M  V30 13 2 12 14
M  V30 14 1 12 15
M  V30 15 1 13 16
M  V30 16 1 15 17
M  V30 17 2 15 18
M  V30 18 1 16 19
M  V30 19 1 17 20
M  V30 20 1 18 21
M  V30 21 1 19 22
M  V30 22 1 22 23
M  V30 23 1 22 24
M  V30 24 2 23 25
M  V30 25 2 24 26
M  V30 26 1 7 10
M  V30 27 1 8 9
M  V30 28 2 20 21
M  V30 29 1 25 26
M  V30 END BOND
M  V30 END CTAB
M  END
>  <Rack>
PathogenBox_PlateA

>  <Position>
F06

>  <Compound ID>
MMV688936

>  <Disease Set>
TUBERCULOSIS

>  <Trivial Name>


>  <Total Molecular Weight>
386.86

>  <Molecular Weight Parent Molecule>
386.86

>  <Molecular Formula>
C18H15N4O2ClS

>  <Salt Name>


>  <Salt Coefficient>


>  <cLogP>
3.75

>  <SMILES>
Clc1cccc2sc(nc12)N(CCCn3ccnc3)C(=O)c4occc4

$$$$
Compound 56
Actelion Java MolfileCreator 2.0

  0  0  0  0  0  0              0 V3000
M  V30 BEGIN CTAB
M  V30 COUNTS 28 30 0 0 0
M  V30 BEGIN ATOM
M  V30 1 O 3.8971 -3.0 0.0 0
M  V30 2 C 5.1961 -2.2499 0.0 0
M  V30 3 O 6.4951 -2.9999 0.0 0
M  V30 4 C 5.1961 -0.75 0.0 0
M  V30 5 C 7.7942 -2.2499 0.0 0
M  V30 6 C 6.4951 0.0 0.0 0
M  V30 7 C 3.8971 0.0 0.0 0
M  V30 8 C 7.7942 -0.7499 0.0 0
M  V30 9 C 9.0932 -2.9999 0.0 0
M  V30 10 C 6.4951 1.5 0.0 0
M  V30 11 C 2.598 -0.75 0.0 0
M  V30 12 C 9.0932 0.0 0.0 0
M  V30 13 C 10.3923 -2.2499 0.0 0
M  V30 14 C 9.0932 -4.4999 0.0 0
M  V30 15 C 1.299 0.0 0.0 0
M  V30 16 C 10.3923 -0.7499 0.0 0
M  V30 17 O 11.6913 -2.9999 0.0 0
M  V30 18 O 1.299 1.5 0.0 0
M  V30 19 O 0.0 -0.75 0.0 0
M  V30 20 C 11.6913 -4.5 0.0 0
M  V30 21 C 12.9903 -5.25 0.0 0
M  V30 22 C 12.9903 -6.75 0.0 0
M  V30 23 C 14.2894 -4.5 0.0 0
M  V30 24 C 14.2894 -7.5 0.0 0
M  V30 25 C 15.5884 -5.25 0.0 0
M  V30 26 C 15.5884 -6.75 0.0 0
M  V30 27 C 14.2894 -9.0 0.0 0
M  V30 28 C 16.8874 -4.5 0.0 0
M  V30 END ATOM
M  V30 BEGIN BOND
M  V30 1 2 1 2
M  V30 2 1 2 3
M  V30 3 1 2 4
M  V30 4 1 3 5
M  V30 5 2 4 6
M  V30 6 1 4 7
M  V30 7 2 5 8
M  V30 8 1 5 9
M  V30 9 1 6 10
M  V30 10 1 7 11
M  V30 11 1 8 12
M  V30 12 2 9 13
M  V30 13 1 9 14
M  V30 14 1 11 15
M  V30 15 2 12 16
M  V30 16 1 13 17
M  V30 17 2 15 18
M  V30 18 1 15 19
M  V30 19 1 17 20
M  V30 20 1 20 21
M  V30 21 2 21 22
M  V30 22 1 21 23
M  V30 23 1 22 24
M  V30 24 2 23 25
M  V30 25 2 24 26
M  V30 26 1 24 27
M  V30 27 1 25 28
M  V30 28 1 6 8
M  V30 29 1 13 16
M  V30 30 1 25 26
M  V30 END BOND
M  V30 END CTAB
M  END
>  <Rack>
PathogenBox_PlateA

>  <Position>
F07

>  <Compound ID>
MMV676476

>  <Disease Set>
TUBERCULOSIS

>  <Trivial Name>


>  <Total Molecular Weight>
380.43

>  <Molecular Weight Parent Molecule>
380.43

>  <Molecular Formula>
C23H24O5

>  <Salt Name>


>  <Salt Coefficient>


>  <cLogP>
4.03

>  <SMILES>
CC1=C(CCC(=O)O)C(=O)Oc2c(C)c(OCc3cc(C)cc(C)c3)ccc12

$$$$
Compound 57
Actelion Java MolfileCreator 2.0

  0  0  0  0  0  0              0 V3000
M  V30 BEGIN CTAB
M  V30 COUNTS 19 22 0 0 0
M  V30 BEGIN ATOM
M  V30 1 Br 0.866 0.0 0.0 0
M  V30 2 C 0.0 -0.5 0.0 0
M  V30 3 N -0.9135 -0.0932 0.0 0
M  V30 4 C -0.1045 -1.4945 0.0 0
M  V30 5 C -1.5826 -0.8364 0.0 0
M  V30 6 C -1.2225 0.8577 0.0 0
M  V30 7 N -1.0826 -1.7024 0.0 0
M  V30 8 C 0.6386 -2.1636 0.0 0
M  V30 9 N -2.5608 -0.6284 0.0 0
M  V30 10 C -2.2007 1.0657 0.0 0
M  V30 11 C 0.4307 -3.1418 0.0 0
M  V30 12 C 1.5896 -1.8546 0.0 0
M  V30 13 C -2.8698 0.3225 0.0 0
M  V30 14 C 1.1738 -3.8109 0.0 0
M  V30 15 C 2.3328 -2.5237 0.0 0
M  V30 16 O 1.1738 -4.8109 0.0 0
M  V30 17 C 2.1249 -3.5019 0.0 0
M  V30 18 C 2.1249 -5.1199 0.0 0
M  V30 19 O 2.7126 -4.3109 0.0 0
M  V30 END ATOM
M  V30 BEGIN BOND
M  V30 1 1 1 2
M  V30 2 1 2 3
M  V30 3 2 2 4
M  V30 4 1 3 5
M  V30 5 1 3 6
M  V30 6 1 4 7
M  V30 7 1 4 8
M  V30 8 1 5 9
M  V30 9 2 6 10
M  V30 10 2 8 11
M  V30 11 1 8 12
M  V30 12 2 9 13
M  V30 13 1 11 14
M  V30 14 2 12 15
M  V30 15 1 14 16
M  V30 16 2 14 17
M  V30 17 1 16 18
M  V30 18 1 17 19
M  V30 19 2 5 7
M  V30 20 1 10 13
M  V30 21 1 15 17
M  V30 22 1 18 19
M  V30 END BOND
M  V30 END CTAB
M  END
>  <Rack>
PathogenBox_PlateA

>  <Position>
F08

>  <Compound ID>
MMV676377

>  <Disease Set>
TUBERCULOSIS

>  <Trivial Name>


>  <Total Molecular Weight>
318.13

>  <Molecular Weight Parent Molecule>
318.13

>  <Molecular Formula>
C13H8N3O2Br

>  <Salt Name>


>  <Salt Coefficient>


>  <cLogP>
2.54

>  <SMILES>
Brc1c(nc2ncccn12)c3ccc4OCOc4c3

$$$$
Compound 58
Actelion Java MolfileCreator 2.0

  0  0  0  0  0  0              0 V3000
M  V30 BEGIN CTAB
M  V30 COUNTS 34 38 0 0 0
M  V30 BEGIN ATOM
M  V30 1 S 4.4346 0.9945 0.0 0
M  V30 2 C 4.3301 0.0 0.0 0
M  V30 3 C 5.4128 1.2024 0.0 0
M  V30 4 C 5.2436 -0.4067 0.0 0
M  V30 5 C 3.4641 -0.5 0.0 0 CFG=1
M  V30 6 C 5.9128 0.3364 0.0 0
M  V30 7 N 3.4641 -1.5 0.0 0
M  V30 8 C 2.598 0.0 0.0 0
M  V30 9 C 2.598 -1.9999 0.0 0
M  V30 10 C 4.3301 -2.0 0.0 0
M  V30 11 N 1.732 -0.5 0.0 0
M  V30 12 C 2.598 -2.9999 0.0 0
M  V30 13 C 4.3301 -3.0 0.0 0
M  V30 14 C 0.866 0.0 0.0 0
M  V30 15 O 3.4641 -3.5 0.0 0
M  V30 16 O 0.866 1.0 0.0 0
M  V30 17 C 0.0 -0.5 0.0 0
M  V30 18 C 0.0 -1.5 0.0 0
M  V30 19 C -0.866 0.0 0.0 0
M  V30 20 C -0.866 -1.9999 0.0 0
M  V30 21 C 0.7431 -2.1691 0.0 0
M  V30 22 C -1.732 -0.4999 0.0 0
M  V30 23 N -1.732 -1.4999 0.0 0
M  V30 24 N -0.6581 -2.9781 0.0 0
M  V30 25 N 0.3364 -3.0826 0.0 0
M  V30 26 C -2.598 0.0 0.0 0
M  V30 27 C -1.3272 -3.7212 0.0 0
M  V30 28 C -2.598 1.0 0.0 0
M  V30 29 C -3.4641 -0.4999 0.0 0
M  V30 30 C -2.3053 -3.5133 0.0 0
M  V30 31 C -1.0182 -4.6723 0.0 0
M  V30 32 C -3.4641 1.5 0.0 0
M  V30 33 C -4.3301 0.0 0.0 0
M  V30 34 C -4.3301 1.0 0.0 0
M  V30 END ATOM
M  V30 BEGIN BOND
M  V30 1 1 1 2
M  V30 2 1 1 3
M  V30 3 2 2 4
M  V30 4 1 5 2
M  V30 5 2 3 6
M  V30 6 1 5 7 CFG=1
M  V30 7 1 5 8
M  V30 8 1 7 9
M  V30 9 1 7 10
M  V30 10 1 8 11
M  V30 11 1 9 12
M  V30 12 1 10 13
M  V30 13 1 11 14
M  V30 14 1 12 15
M  V30 15 2 14 16
M  V30 16 1 14 17
M  V30 17 2 17 18
M  V30 18 1 17 19
M  V30 19 1 18 20
M  V30 20 1 18 21
M  V30 21 2 19 22
M  V30 22 2 20 23
M  V30 23 1 20 24
M  V30 24 2 21 25
M  V30 25 1 22 26
M  V30 26 1 24 27
M  V30 27 2 26 28
M  V30 28 1 26 29
M  V30 29 1 27 30
M  V30 30 1 27 31
M  V30 31 1 28 32
M  V30 32 2 29 33
M  V30 33 2 32 34
M  V30 34 1 4 6
M  V30 35 1 13 15
M  V30 36 1 22 23
M  V30 37 1 24 25
M  V30 38 1 33 34
M  V30 END BOND
M  V30 BEGIN COLLECTION
M  V30 MDLV30/STERAC1 ATOMS=(1 5)
M  V30 END COLLECTION
M  V30 END CTAB
M  END
>  <Rack>
PathogenBox_PlateA

>  <Position>
F09

>  <Compound ID>
MMV676406

>  <Disease Set>
TUBERCULOSIS

>  <Trivial Name>


>  <Total Molecular Weight>
475.61

>  <Molecular Weight Parent Molecule>
475.61

>  <Molecular Formula>
C26H29N5O2S

>  <Salt Name>


>  <Salt Coefficient>


>  <cLogP>
3.09

>  <SMILES>
CC(C)n1ncc2c(cc(nc12)c3ccccc3)C(=O)NCC(N4CCOCC4)c5cccs5

$$$$
Compound 59
Actelion Java MolfileCreator 2.0

  0  0  0  0  0  0              0 V3000
M  V30 BEGIN CTAB
M  V30 COUNTS 25 27 0 0 0
M  V30 BEGIN ATOM
M  V30 1 S 7.6839 -6.3377 0.0 0
M  V30 2 C 9.0542 -5.7276 0.0 0
M  V30 3 C 6.6802 -5.223 0.0 0
M  V30 4 N 8.8974 -4.2358 0.0 0
M  V30 5 N 10.3533 -6.4776 0.0 0
M  V30 6 C 7.4302 -3.9239 0.0 0
M  V30 7 C 11.6523 -5.7276 0.0 0
M  V30 8 C 6.8201 -2.5536 0.0 0
M  V30 9 C 12.9513 -6.4776 0.0 0
M  V30 10 C 11.6523 -4.2276 0.0 0
M  V30 11 O 7.5701 -1.2546 0.0 0
M  V30 12 C 5.3529 -2.2417 0.0 0
M  V30 13 C 14.2504 -5.7276 0.0 0
M  V30 14 C 12.9513 -7.9776 0.0 0
M  V30 15 C 12.9513 -3.4776 0.0 0
M  V30 16 C 10.3533 -3.4776 0.0 0
M  V30 17 N 6.5664 -0.1398 0.0 0
M  V30 18 C 5.1961 -0.75 0.0 0
M  V30 19 C 14.2504 -4.2276 0.0 0
M  V30 20 C 3.8971 0.0 0.0 0
M  V30 21 C 15.5494 -3.4776 0.0 0
M  V30 22 O 3.8971 1.5 0.0 0
M  V30 23 O 2.598 -0.75 0.0 0
M  V30 24 C 1.299 0.0 0.0 0
M  V30 25 C 0.0 -0.75 0.0 0
M  V30 END ATOM
M  V30 BEGIN BOND
M  V30 1 1 1 2
M  V30 2 1 1 3
M  V30 3 2 2 4
M  V30 4 1 2 5
M  V30 5 2 3 6
M  V30 6 1 5 7
M  V30 7 1 6 8
M  V30 8 2 7 9
M  V30 9 1 7 10
M  V30 10 1 8 11
M  V30 11 2 8 12
M  V30 12 1 9 13
M  V30 13 1 9 14
M  V30 14 2 10 15
M  V30 15 1 10 16
M  V30 16 1 11 17
M  V30 17 1 12 18
M  V30 18 2 13 19
M  V30 19 1 18 20
M  V30 20 1 19 21
M  V30 21 2 20 22
M  V30 22 1 20 23
M  V30 23 1 23 24
M  V30 24 1 24 25
M  V30 25 1 4 6
M  V30 26 1 15 19
M  V30 27 2 17 18
M  V30 END BOND
M  V30 END CTAB
M  END
>  <Rack>
PathogenBox_PlateA

>  <Position>
F10

>  <Compound ID>
MMV676461

>  <Disease Set>
TUBERCULOSIS

>  <Trivial Name>


>  <Total Molecular Weight>
357.43

>  <Molecular Weight Parent Molecule>
357.43

>  <Molecular Formula>
C18H19N3O3S

>  <Salt Name>


>  <Salt Coefficient>


>  <cLogP>
4.47

>  <SMILES>
CCOC(=O)c1cc(on1)c2csc(Nc3c(C)cc(C)cc3C)n2

$$$$
Compound 60
Actelion Java MolfileCreator 2.0

  0  0  0  0  0  0              0 V3000
M  V30 BEGIN CTAB
M  V30 COUNTS 27 30 0 0 0
M  V30 BEGIN ATOM
M  V30 1 Cl 9.0932 -3.0 0.0 0
M  V30 2 C 7.7942 -2.2499 0.0 0
M  V30 3 C 7.7942 -0.75 0.0 0
M  V30 4 C 6.4951 -2.9999 0.0 0
M  V30 5 C 9.0932 0.0 0.0 0
M  V30 6 C 6.4951 0.0 0.0 0
M  V30 7 C 5.1961 -2.25 0.0 0
M  V30 8 O 10.4635 -0.6101 0.0 0
M  V30 9 N 9.25 1.4917 0.0 0
M  V30 10 C 5.1961 -0.75 0.0 0
M  V30 11 C 11.4672 0.5046 0.0 0
M  V30 12 C 10.7172 1.8036 0.0 0
M  V30 13 N 3.8971 0.0 0.0 0
M  V30 14 C 12.9672 0.5046 0.0 0
M  V30 15 C 11.4672 3.1026 0.0 0
M  V30 16 C 2.598 -0.75 0.0 0
M  V30 17 C 13.7172 1.8036 0.0 0
M  V30 18 C 12.9672 3.1026 0.0 0
M  V30 19 O 2.598 -2.25 0.0 0
M  V30 20 C 1.299 0.0 0.0 0
M  V30 21 C 13.7172 4.4017 0.0 0
M  V30 22 C 0.0 -0.75 0.0 0
M  V30 23 C -1.299 0.0 0.0 0
M  V30 24 C 0.0 -2.2499 0.0 0
M  V30 25 C -2.598 -0.7499 0.0 0
M  V30 26 C -1.299 -2.9999 0.0 0
M  V30 27 C -2.598 -2.2499 0.0 0
M  V30 END ATOM
M  V30 BEGIN BOND
M  V30 1 1 1 2
M  V30 2 2 2 3
M  V30 3 1 2 4
M  V30 4 1 3 5
M  V30 5 1 3 6
M  V30 6 2 4 7
M  V30 7 1 5 8
M  V30 8 2 5 9
M  V30 9 2 6 10
M  V30 10 1 8 11
M  V30 11 1 9 12
M  V30 12 1 10 13
M  V30 13 1 11 14
M  V30 14 1 12 15
M  V30 15 1 13 16
M  V30 16 2 14 17
M  V30 17 2 15 18
M  V30 18 2 16 19
M  V30 19 1 16 20
M  V30 20 1 18 21
M  V30 21 1 20 22
M  V30 22 2 22 23
M  V30 23 1 22 24
M  V30 24 1 23 25
M  V30 25 2 24 26
M  V30 26 2 25 27
M  V30 27 1 7 10
M  V30 28 2 11 12
M  V30 29 1 17 18
M  V30 30 1 26 27
M  V30 END BOND
M  V30 END CTAB
M  END
>  <Rack>
PathogenBox_PlateA

>  <Position>
F11

>  <Compound ID>
MMV676509

>  <Disease Set>
TUBERCULOSIS

>  <Trivial Name>


>  <Total Molecular Weight>
376.84

>  <Molecular Weight Parent Molecule>
376.84

>  <Molecular Formula>
C22H17N2O2Cl

>  <Salt Name>


>  <Salt Coefficient>


>  <cLogP>
5.41

>  <SMILES>
Cc1ccc2oc(nc2c1)c3cc(NC(=O)Cc4ccccc4)ccc3Cl

$$$$
Compound 61
Actelion Java MolfileCreator 2.0

  0  0  0  0  0  0              0 V3000
M  V30 BEGIN CTAB
M  V30 COUNTS 33 37 0 0 0
M  V30 BEGIN ATOM
M  V30 1 S 5.1961 1.5 0.0 0
M  V30 2 O 5.6961 0.6339 0.0 0
M  V30 3 O 4.6961 2.366 0.0 0
M  V30 4 N 4.3301 1.0 0.0 0
M  V30 5 C 6.0621 2.0 0.0 0
M  V30 6 C 3.4641 1.5 0.0 0
M  V30 7 C 4.3301 0.0 0.0 0
M  V30 8 C 2.598 0.9999 0.0 0
M  V30 9 C 3.4641 -0.4999 0.0 0
M  V30 10 C 2.598 0.0 0.0 0
M  V30 11 C 1.732 -0.5 0.0 0
M  V30 12 C 0.866 0.0 0.0 0
M  V30 13 N 0.0 -0.5 0.0 0
M  V30 14 N -0.9135 -0.0932 0.0 0
M  V30 15 C -0.1045 -1.4945 0.0 0
M  V30 16 C -1.5826 -0.8364 0.0 0
M  V30 17 N 0.5646 -2.2376 0.0 0
M  V30 18 C -1.0826 -1.7024 0.0 0
M  V30 19 C -2.5771 -0.7318 0.0 0
M  V30 20 C 0.2555 -3.1887 0.0 0
M  V30 21 C -1.3916 -2.6534 0.0 0
M  V30 22 C -2.9839 0.1816 0.0 0
M  V30 23 N -0.7225 -3.3966 0.0 0
M  V30 24 N -2.3698 -2.8614 0.0 0
M  V30 25 C -2.3961 0.9906 0.0 0
M  V30 26 C -3.9784 0.2861 0.0 0
M  V30 27 C -2.8028 1.9042 0.0 0
M  V30 28 C -1.4016 0.8861 0.0 0
M  V30 29 C -4.3851 1.1997 0.0 0
M  V30 30 C -3.7974 2.0087 0.0 0
M  V30 31 C -2.2151 2.7132 0.0 0
M  V30 32 C -0.8138 1.6951 0.0 0
M  V30 33 C -1.2205 2.6087 0.0 0
M  V30 END ATOM
M  V30 BEGIN BOND
M  V30 1 2 1 2
M  V30 2 2 1 3
M  V30 3 1 1 4
M  V30 4 1 1 5
M  V30 5 1 4 6
M  V30 6 1 4 7
M  V30 7 1 6 8
M  V30 8 1 7 9
M  V30 9 1 8 10
M  V30 10 1 10 11
M  V30 11 1 11 12
M  V30 12 1 12 13
M  V30 13 1 13 14
M  V30 14 1 13 15
M  V30 15 2 14 16
M  V30 16 2 15 17
M  V30 17 1 15 18
M  V30 18 1 16 19
M  V30 19 1 17 20
M  V30 20 2 18 21
M  V30 21 1 19 22
M  V30 22 2 20 23
M  V30 23 1 21 24
M  V30 24 1 22 25
M  V30 25 2 22 26
M  V30 26 1 25 27
M  V30 27 2 25 28
M  V30 28 1 26 29
M  V30 29 1 27 30
M  V30 30 2 27 31
M  V30 31 1 28 32
M  V30 32 1 31 33
M  V30 33 1 9 10
M  V30 34 1 16 18
M  V30 35 1 21 23
M  V30 36 2 29 30
M  V30 37 2 32 33
M  V30 END BOND
M  V30 END CTAB
M  END
>  <Rack>
PathogenBox_PlateA

>  <Position>
G02

>  <Compound ID>
MMV688470

>  <Disease Set>
TOXOPLASMOSIS

>  <Trivial Name>


>  <Total Molecular Weight>
464.58

>  <Molecular Weight Parent Molecule>
464.58

>  <Molecular Formula>
C24H28N6O2S

>  <Salt Name>


>  <Salt Coefficient>


>  <cLogP>
3.12

>  <SMILES>
CS(=O)(=O)N1CCC(CCn2nc(Cc3cccc4ccccc34)c3c(N)ncnc23)CC1

$$$$
Compound 62
Actelion Java MolfileCreator 2.0

  0  0  0  0  0  0              0 V3000
M  V30 BEGIN CTAB
M  V30 COUNTS 26 28 0 0 0
M  V30 BEGIN ATOM
M  V30 1 Cl 5.1961 -0.4999 0.0 0
M  V30 2 C 4.3301 0.0 0.0 0
M  V30 3 N 3.4641 -0.4999 0.0 0
M  V30 4 C 4.3301 1.0 0.0 0
M  V30 5 C 2.598 0.0 0.0 0
M  V30 6 N 5.0732 1.6691 0.0 0
M  V30 7 C 3.4641 1.5 0.0 0
M  V30 8 N 2.598 1.0 0.0 0
M  V30 9 N 1.732 -0.5 0.0 0
M  V30 10 C 4.6665 2.5826 0.0 0
M  V30 11 C 6.0514 1.4612 0.0 0
M  V30 12 C 3.672 2.4781 0.0 0
M  V30 13 C 0.866 0.0 0.0 0
M  V30 14 C 5.1665 3.4487 0.0 0
M  V30 15 C 6.7205 2.2043 0.0 0
M  V30 16 O 0.866 1.0 0.0 0
M  V30 17 C 0.0 -0.5 0.0 0
M  V30 18 C 7.6986 1.9964 0.0 0
M  V30 19 C 6.4115 3.1554 0.0 0
M  V30 20 C 0.4999 -1.366 0.0 0
M  V30 21 C -0.866 -0.9999 0.0 0
M  V30 22 C -0.4999 0.366 0.0 0
M  V30 23 C 8.3678 2.7395 0.0 0
M  V30 24 C 7.0806 3.8985 0.0 0
M  V30 25 C 8.0588 3.6906 0.0 0
M  V30 26 Cl 8.7279 4.4337 0.0 0
M  V30 END ATOM
M  V30 BEGIN BOND
M  V30 1 1 1 2
M  V30 2 2 2 3
M  V30 3 1 2 4
M  V30 4 1 3 5
M  V30 5 1 4 6
M  V30 6 2 4 7
M  V30 7 2 5 8
M  V30 8 1 5 9
M  V30 9 1 6 10
M  V30 10 1 6 11
M  V30 11 1 7 12
M  V30 12 1 9 13
M  V30 13 1 10 14
M  V30 14 1 11 15
M  V30 15 2 13 16
M  V30 16 1 13 17
M  V30 17 2 15 18
M  V30 18 1 15 19
M  V30 19 1 17 20
M  V30 20 1 17 21
M  V30 21 1 17 22
M  V30 22 1 18 23
M  V30 23 2 19 24
M  V30 24 2 23 25
M  V30 25 1 25 26
M  V30 26 1 7 8
M  V30 27 2 10 12
M  V30 28 1 24 25
M  V30 END BOND
M  V30 END CTAB
M  END
>  <Rack>
PathogenBox_PlateA

>  <Position>
G03

>  <Compound ID>
MMV688704

>  <Disease Set>
TOXOPLASMOSIS

>  <Trivial Name>


>  <Total Molecular Weight>
391.29

>  <Molecular Weight Parent Molecule>
391.29

>  <Molecular Formula>
C19H20N4OCl2

>  <Salt Name>


>  <Salt Coefficient>


>  <cLogP>
4.77

>  <SMILES>
Cc1cc2nc(NC(=O)C(C)(C)C)nc(Cl)c2n1Cc1ccc(Cl)cc1

$$$$
Compound 63
Actelion Java MolfileCreator 2.0

  0  0  0  0  0  0              0 V3000
M  V30 BEGIN CTAB
M  V30 COUNTS 23 25 0 0 0
M  V30 BEGIN ATOM
M  V30 1 F 5.1961 1.5 0.0 0
M  V30 2 C 4.3301 1.0 0.0 0
M  V30 3 C 3.4641 1.5 0.0 0
M  V30 4 C 4.3301 0.0 0.0 0
M  V30 5 C 2.598 0.9999 0.0 0
M  V30 6 C 3.4641 -0.4999 0.0 0
M  V30 7 C 2.598 0.0 0.0 0
M  V30 8 C 1.732 -0.5 0.0 0
M  V30 9 C 0.866 0.0 0.0 0
M  V30 10 O 0.866 1.0 0.0 0
M  V30 11 N 0.0 -0.5 0.0 0
M  V30 12 C -0.9135 -0.0932 0.0 0
M  V30 13 C -0.1045 -1.4945 0.0 0 CFG=2
M  V30 14 C -1.5826 -0.8364 0.0 0
M  V30 15 C -1.2225 0.8577 0.0 0
M  V30 16 C 0.6386 -2.1636 0.0 0
M  V30 17 C -1.0826 -1.7024 0.0 0
M  V30 18 C -2.5608 -0.6284 0.0 0
M  V30 19 C -2.2007 1.0657 0.0 0
M  V30 20 O 1.5896 -1.8546 0.0 0
M  V30 21 N 0.4307 -3.1418 0.0 0
M  V30 22 C -2.8698 0.3225 0.0 0
M  V30 23 C 1.1738 -3.8109 0.0 0
M  V30 END ATOM
M  V30 BEGIN BOND
M  V30 1 1 1 2
M  V30 2 2 2 3
M  V30 3 1 2 4
M  V30 4 1 3 5
M  V30 5 2 4 6
M  V30 6 2 5 7
M  V30 7 1 7 8
M  V30 8 1 8 9
M  V30 9 2 9 10
M  V30 10 1 9 11
M  V30 11 1 11 12
M  V30 12 1 13 11
M  V30 13 2 12 14
M  V30 14 1 12 15
M  V30 15 1 13 16 CFG=3
M  V30 16 1 13 17
M  V30 17 1 14 18
M  V30 18 2 15 19
M  V30 19 2 16 20
M  V30 20 1 16 21
M  V30 21 2 18 22
M  V30 22 1 21 23
M  V30 23 1 6 7
M  V30 24 1 14 17
M  V30 25 1 19 22
M  V30 END BOND
M  V30 BEGIN COLLECTION
M  V30 MDLV30/STERAC1 ATOMS=(1 13)
M  V30 END COLLECTION
M  V30 END CTAB
M  END
>  <Rack>
PathogenBox_PlateA

>  <Position>
G04

>  <Compound ID>
MMV188296

>  <Disease Set>
KINETOPLASTIDS

>  <Trivial Name>


>  <Total Molecular Weight>
312.34

>  <Molecular Weight Parent Molecule>
312.34

>  <Molecular Formula>
C18H17N2O2F

>  <Salt Name>


>  <Salt Coefficient>


>  <cLogP>
2.29

>  <SMILES>
CNC(=O)C1Cc2ccccc2N1C(=O)Cc3ccc(F)cc3

$$$$
Compound 64
Actelion Java MolfileCreator 2.0

  0  0  0  0  0  0              0 V3000
M  V30 BEGIN CTAB
M  V30 COUNTS 22 24 0 0 0
M  V30 BEGIN ATOM
M  V30 1 S 5.9128 0.3364 0.0 0
M  V30 2 C 5.4128 1.2024 0.0 0
M  V30 3 C 5.2436 -0.4067 0.0 0
M  V30 4 N 4.4346 0.9945 0.0 0
M  V30 5 C 5.8195 2.1159 0.0 0
M  V30 6 C 4.3301 0.0 0.0 0
M  V30 7 C 6.814 2.2205 0.0 0
M  V30 8 C 5.2317 2.9249 0.0 0
M  V30 9 C 3.4641 -0.5 0.0 0
M  V30 10 C 7.2207 3.134 0.0 0
M  V30 11 C 5.6384 3.8385 0.0 0
M  V30 12 C 2.598 0.0 0.0 0
M  V30 13 C 6.633 3.943 0.0 0
M  V30 14 N 1.732 -0.5 0.0 0
M  V30 15 C 0.866 0.0 0.0 0
M  V30 16 O 0.866 1.0 0.0 0
M  V30 17 C 0.0 -0.5 0.0 0
M  V30 18 C -0.866 0.0 0.0 0
M  V30 19 C 0.0 -1.4999 0.0 0
M  V30 20 C -1.732 -0.4999 0.0 0
M  V30 21 C -0.866 -1.9999 0.0 0
M  V30 22 C -1.732 -1.4999 0.0 0
M  V30 END ATOM
M  V30 BEGIN BOND
M  V30 1 1 1 2
M  V30 2 1 1 3
M  V30 3 2 2 4
M  V30 4 1 2 5
M  V30 5 2 3 6
M  V30 6 2 5 7
M  V30 7 1 5 8
M  V30 8 1 6 9
M  V30 9 1 7 10
M  V30 10 2 8 11
M  V30 11 1 9 12
M  V30 12 2 10 13
M  V30 13 1 12 14
M  V30 14 1 14 15
M  V30 15 2 15 16
M  V30 16 1 15 17
M  V30 17 2 17 18
M  V30 18 1 17 19
M  V30 19 1 18 20
M  V30 20 2 19 21
M  V30 21 2 20 22
M  V30 22 1 4 6
M  V30 23 1 11 13
M  V30 24 1 21 22
M  V30 END BOND
M  V30 END CTAB
M  END
>  <Rack>
PathogenBox_PlateA

>  <Position>
G05

>  <Compound ID>
MMV688958

>  <Disease Set>
KINETOPLASTIDS

>  <Trivial Name>


>  <Total Molecular Weight>
308.40

>  <Molecular Weight Parent Molecule>
308.40

>  <Molecular Formula>
C18H16N2OS

>  <Salt Name>


>  <Salt Coefficient>


>  <cLogP>
3.66

>  <SMILES>
O=C(NCCc1csc(n1)c2ccccc2)c3ccccc3

$$$$
Compound 65
Actelion Java MolfileCreator 2.0

  0  0  0  0  0  0              0 V3000
M  V30 BEGIN CTAB
M  V30 COUNTS 24 26 0 0 0
M  V30 BEGIN ATOM
M  V30 1 Cl 3.7195 -1.3848 0.0 0
M  V30 2 C 3.5116 -0.4067 0.0 0
M  V30 3 N 4.1807 0.3364 0.0 0
M  V30 4 C 2.598 0.0 0.0 0
M  V30 5 N 3.6807 1.2024 0.0 0
M  V30 6 C 5.1752 0.2318 0.0 0
M  V30 7 C 2.7026 0.9945 0.0 0
M  V30 8 C 1.732 -0.5 0.0 0
M  V30 9 C 5.763 1.0408 0.0 0
M  V30 10 C 1.9594 1.6636 0.0 0
M  V30 11 O 1.732 -1.5 0.0 0
M  V30 12 N 0.866 0.0 0.0 0
M  V30 13 C 6.7575 0.9363 0.0 0
M  V30 14 C 5.3563 1.9544 0.0 0
M  V30 15 C 0.0 -0.5 0.0 0
M  V30 16 C 7.3453 1.7453 0.0 0
M  V30 17 C 5.9441 2.7634 0.0 0
M  V30 18 C -0.8262 0.0633 0.0 0
M  V30 19 C 0.0747 -1.4972 0.0 0
M  V30 20 C 6.9386 2.6589 0.0 0
M  V30 21 C -1.7818 -0.2314 0.0 0
M  V30 22 C -0.6583 -2.1773 0.0 0
M  V30 23 C -2.1471 -1.1623 0.0 0
M  V30 24 C -1.6471 -2.0283 0.0 0
M  V30 END ATOM
M  V30 BEGIN BOND
M  V30 1 1 1 2
M  V30 2 1 2 3
M  V30 3 2 2 4
M  V30 4 1 3 5
M  V30 5 1 3 6
M  V30 6 1 4 7
M  V30 7 1 4 8
M  V30 8 1 6 9
M  V30 9 1 7 10
M  V30 10 2 8 11
M  V30 11 1 8 12
M  V30 12 2 9 13
M  V30 13 1 9 14
M  V30 14 1 12 15
M  V30 15 1 13 16
M  V30 16 2 14 17
M  V30 17 1 15 18
M  V30 18 1 15 19
M  V30 19 2 16 20
M  V30 20 1 18 21
M  V30 21 1 19 22
M  V30 22 1 21 23
M  V30 23 1 22 24
M  V30 24 2 5 7
M  V30 25 1 17 20
M  V30 26 1 23 24
M  V30 END BOND
M  V30 END CTAB
M  END
>  <Rack>
PathogenBox_PlateA

>  <Position>
G06

>  <Compound ID>
MMV063404

>  <Disease Set>
TUBERCULOSIS

>  <Trivial Name>


>  <Total Molecular Weight>
345.87

>  <Molecular Weight Parent Molecule>
345.87

>  <Molecular Formula>
C19H24N3OCl

>  <Salt Name>


>  <Salt Coefficient>


>  <cLogP>
3.52

>  <SMILES>
Cc1nn(Cc2ccccc2)c(Cl)c1C(=O)NC3CCCCCC3

$$$$
Compound 66
Actelion Java MolfileCreator 2.0

  0  0  0  0  0  0              0 V3000
M  V30 BEGIN CTAB
M  V30 COUNTS 27 31 0 0 0
M  V30 BEGIN ATOM
M  V30 1 S 4.1996 -2.8238 0.0 0
M  V30 2 C 3.2214 -2.6159 0.0 0
M  V30 3 C 4.3041 -3.8184 0.0 0
M  V30 4 N 2.7214 -3.482 0.0 0
M  V30 5 N 2.8147 -1.7024 0.0 0
M  V30 6 C 3.3905 -4.2251 0.0 0
M  V30 7 C 5.1131 -4.4061 0.0 0
M  V30 8 N 3.3147 -0.8364 0.0 0
M  V30 9 C 1.8365 -1.4945 0.0 0
M  V30 10 C 3.286 -5.2196 0.0 0
M  V30 11 C 5.0086 -5.4007 0.0 0
M  V30 12 C 2.6455 -0.0932 0.0 0
M  V30 13 O 1.0934 -2.1636 0.0 0
M  V30 14 C 1.732 -0.5 0.0 0 CFG=2
M  V30 15 C 4.095 -5.8074 0.0 0
M  V30 16 C 2.8535 0.8848 0.0 0
M  V30 17 C 0.866 0.0 0.0 0
M  V30 18 C 0.0 -0.5 0.0 0
M  V30 19 C -0.866 0.0 0.0 0
M  V30 20 C 0.0 -1.4999 0.0 0
M  V30 21 C -1.732 -0.4999 0.0 0
M  V30 22 C -0.866 1.0 0.0 0
M  V30 23 C -0.866 -1.9999 0.0 0
M  V30 24 C -1.732 -1.4999 0.0 0
M  V30 25 C -2.598 0.0 0.0 0
M  V30 26 C -1.732 1.5 0.0 0
M  V30 27 C -2.598 1.0 0.0 0
M  V30 END ATOM
M  V30 BEGIN BOND
M  V30 1 1 1 2
M  V30 2 1 1 3
M  V30 3 2 2 4
M  V30 4 1 2 5
M  V30 5 2 3 6
M  V30 6 1 3 7
M  V30 7 1 5 8
M  V30 8 1 5 9
M  V30 9 1 6 10
M  V30 10 2 7 11
M  V30 11 2 8 12
M  V30 12 2 9 13
M  V30 13 1 14 9
M  V30 14 2 10 15
M  V30 15 1 12 16
M  V30 16 1 14 17 CFG=1
M  V30 17 1 17 18
M  V30 18 1 18 19
M  V30 19 2 18 20
M  V30 20 1 19 21
M  V30 21 2 19 22
M  V30 22 1 20 23
M  V30 23 1 21 24
M  V30 24 2 21 25
M  V30 25 1 22 26
M  V30 26 1 25 27
M  V30 27 1 4 6
M  V30 28 1 11 15
M  V30 29 1 12 14
M  V30 30 2 23 24
M  V30 31 2 26 27
M  V30 END BOND
M  V30 BEGIN COLLECTION
M  V30 MDLV30/STERAC1 ATOMS=(1 14)
M  V30 END COLLECTION
M  V30 END CTAB
M  END
>  <Rack>
PathogenBox_PlateA

>  <Position>
G07

>  <Compound ID>
MMV676558

>  <Disease Set>
TUBERCULOSIS

>  <Trivial Name>


>  <Total Molecular Weight>
371.45

>  <Molecular Weight Parent Molecule>
371.45

>  <Molecular Formula>
C22H17N3OS

>  <Salt Name>


>  <Salt Coefficient>


>  <cLogP>
5.52

>  <SMILES>
CC1=NN(C(=O)C1Cc2cccc3ccccc23)c4nc5ccccc5s4

$$$$
Compound 67
Actelion Java MolfileCreator 2.0

  0  0  0  0  0  0              0 V3000
M  V30 BEGIN CTAB
M  V30 COUNTS 22 24 0 0 0
M  V30 BEGIN ATOM
M  V30 1 Cl 7.1499 -5.3478 0.0 0
M  V30 2 C 6.5621 -4.5388 0.0 0
M  V30 3 S 6.8711 -3.5877 0.0 0
M  V30 4 C 5.5621 -4.5388 0.0 0
M  V30 5 C 6.0621 -3.0 0.0 0
M  V30 6 C 5.2531 -3.5877 0.0 0
M  V30 7 C 6.0621 -1.9999 0.0 0
M  V30 8 N 5.1961 -1.4999 0.0 0
M  V30 9 C 5.1961 -0.5 0.0 0
M  V30 10 C 4.3301 -1.9999 0.0 0
M  V30 11 C 4.3301 0.0 0.0 0
M  V30 12 C 3.4641 -1.5 0.0 0
M  V30 13 N 3.4641 -0.5 0.0 0
M  V30 14 C 2.598 0.0 0.0 0
M  V30 15 O 2.598 1.0 0.0 0
M  V30 16 N 1.732 -0.5 0.0 0
M  V30 17 C 0.866 0.0 0.0 0
M  V30 18 C 0.0 -0.5 0.0 0
M  V30 19 O -0.9135 -0.0932 0.0 0
M  V30 20 C -0.1045 -1.4945 0.0 0
M  V30 21 C -1.5826 -0.8364 0.0 0
M  V30 22 C -1.0826 -1.7024 0.0 0
M  V30 END ATOM
M  V30 BEGIN BOND
M  V30 1 1 1 2
M  V30 2 1 2 3
M  V30 3 2 2 4
M  V30 4 1 3 5
M  V30 5 1 4 6
M  V30 6 1 5 7
M  V30 7 1 7 8
M  V30 8 1 8 9
M  V30 9 1 8 10
M  V30 10 1 9 11
M  V30 11 1 10 12
M  V30 12 1 11 13
M  V30 13 1 13 14
M  V30 14 2 14 15
M  V30 15 1 14 16
M  V30 16 1 16 17
M  V30 17 1 17 18
M  V30 18 1 18 19
M  V30 19 2 18 20
M  V30 20 1 19 21
M  V30 21 1 20 22
M  V30 22 2 5 6
M  V30 23 1 12 13
M  V30 24 2 21 22
M  V30 END BOND
M  V30 END CTAB
M  END
>  <Rack>
PathogenBox_PlateA

>  <Position>
G08

>  <Compound ID>
MMV688555

>  <Disease Set>
TUBERCULOSIS

>  <Trivial Name>


>  <Total Molecular Weight>
339.84

>  <Molecular Weight Parent Molecule>
339.84

>  <Molecular Formula>
C15H18N3O2ClS

>  <Salt Name>


>  <Salt Coefficient>


>  <cLogP>
2.43

>  <SMILES>
Clc1ccc(CN2CCN(CC2)C(=O)NCc3occc3)s1

$$$$
Compound 68
Actelion Java MolfileCreator 2.0

  0  0  0  0  0  0              0 V3000
M  V30 BEGIN CTAB
M  V30 COUNTS 25 27 0 0 0
M  V30 BEGIN ATOM
M  V30 1 O 2.598 1.0 0.0 0
M  V30 2 C 2.598 0.0 0.0 0
M  V30 3 N 3.4641 -0.5 0.0 0
M  V30 4 C 1.732 -0.5 0.0 0
M  V30 5 C 4.3301 0.0 0.0 0
M  V30 6 O 0.866 0.0 0.0 0
M  V30 7 N 5.2436 -0.4067 0.0 0
M  V30 8 N 4.4346 0.9945 0.0 0
M  V30 9 C 0.0 -0.5 0.0 0
M  V30 10 N 5.9128 0.3364 0.0 0
M  V30 11 N 5.4128 1.2024 0.0 0
M  V30 12 C -0.866 0.0 0.0 0
M  V30 13 C 0.0 -1.4999 0.0 0
M  V30 14 C 5.8195 2.1159 0.0 0
M  V30 15 C -1.732 -0.4999 0.0 0
M  V30 16 C -0.866 -1.9999 0.0 0
M  V30 17 C 6.814 2.2205 0.0 0
M  V30 18 C -1.732 -1.4999 0.0 0
M  V30 19 C 7.2207 3.134 0.0 0
M  V30 20 C -2.598 -1.9999 0.0 0
M  V30 21 C -3.4641 -1.4999 0.0 0
M  V30 22 C -2.598 -2.9999 0.0 0
M  V30 23 C -4.3301 -1.9999 0.0 0
M  V30 24 C -3.4641 -3.4999 0.0 0
M  V30 25 C -4.3301 -2.9999 0.0 0
M  V30 END ATOM
M  V30 BEGIN BOND
M  V30 1 2 1 2
M  V30 2 1 2 3
M  V30 3 1 2 4
M  V30 4 1 3 5
M  V30 5 1 4 6
M  V30 6 1 5 7
M  V30 7 2 5 8
M  V30 8 1 6 9
M  V30 9 2 7 10
M  V30 10 1 8 11
M  V30 11 2 9 12
M  V30 12 1 9 13
M  V30 13 1 11 14
M  V30 14 1 12 15
M  V30 15 2 13 16
M  V30 16 1 14 17
M  V30 17 2 15 18
M  V30 18 1 17 19
M  V30 19 1 18 20
M  V30 20 1 20 21
M  V30 21 1 20 22
M  V30 22 1 21 23
M  V30 23 1 22 24
M  V30 24 1 23 25
M  V30 25 1 10 11
M  V30 26 1 16 18
M  V30 27 1 24 25
M  V30 END BOND
M  V30 END CTAB
M  END
>  <Rack>
PathogenBox_PlateA

>  <Position>
G09

>  <Compound ID>
MMV676597

>  <Disease Set>
TUBERCULOSIS

>  <Trivial Name>


>  <Total Molecular Weight>
343.42

>  <Molecular Weight Parent Molecule>
343.42

>  <Molecular Formula>
C18H25N5O2

>  <Salt Name>


>  <Salt Coefficient>


>  <cLogP>
3.77

>  <SMILES>
CCCn1nnc(NC(=O)COc2ccc(cc2)C3CCCCC3)n1

$$$$
Compound 69
Actelion Java MolfileCreator 2.0

  0  0  0  0  0  0              0 V3000
M  V30 BEGIN CTAB
M  V30 COUNTS 18 21 0 0 0
M  V30 BEGIN ATOM
M  V30 1 S 3.3412 -0.6691 0.0 0
M  V30 2 C 2.598 0.0 0.0 0
M  V30 3 C 2.9344 -1.5826 0.0 0
M  V30 4 N 2.598 0.9999 0.0 0
M  V30 5 C 1.732 -0.5 0.0 0
M  V30 6 C 1.9399 -1.4781 0.0 0
M  V30 7 C 3.3412 -2.4962 0.0 0
M  V30 8 C 1.732 1.4999 0.0 0
M  V30 9 C 0.866 0.0 0.0 0
M  V30 10 C 1.3521 -2.2871 0.0 0
M  V30 11 C 2.7534 -3.3052 0.0 0
M  V30 12 C 0.866 0.9999 0.0 0
M  V30 13 C 1.732 2.4999 0.0 0
M  V30 14 N 0.0 -0.5 0.0 0
M  V30 15 C 1.7589 -3.2007 0.0 0
M  V30 16 C 0.0 1.4999 0.0 0
M  V30 17 C 0.866 2.9999 0.0 0
M  V30 18 C 0.0 2.4999 0.0 0
M  V30 END ATOM
M  V30 BEGIN BOND
M  V30 1 1 1 2
M  V30 2 1 1 3
M  V30 3 2 2 4
M  V30 4 1 2 5
M  V30 5 2 3 6
M  V30 6 1 3 7
M  V30 7 1 4 8
M  V30 8 2 5 9
M  V30 9 1 6 10
M  V30 10 1 7 11
M  V30 11 2 8 12
M  V30 12 1 8 13
M  V30 13 1 9 14
M  V30 14 1 10 15
M  V30 15 1 12 16
M  V30 16 1 13 17
M  V30 17 1 16 18
M  V30 18 1 5 6
M  V30 19 1 9 12
M  V30 20 1 11 15
M  V30 21 1 17 18
M  V30 END BOND
M  V30 END CTAB
M  END
>  <Rack>
PathogenBox_PlateA

>  <Position>
G10

>  <Compound ID>
MMV676588

>  <Disease Set>
TUBERCULOSIS

>  <Trivial Name>


>  <Total Molecular Weight>
258.38

>  <Molecular Weight Parent Molecule>
258.38

>  <Molecular Formula>
C15H18N2S

>  <Salt Name>


>  <Salt Coefficient>


>  <cLogP>
3.47

>  <SMILES>
Nc1c2CCCCc2nc3sc4CCCCc4c13

$$$$
Compound 70
Actelion Java MolfileCreator 2.0

  0  0  0  0  0  0              0 V3000
M  V30 BEGIN CTAB
M  V30 COUNTS 25 27 0 0 0
M  V30 BEGIN ATOM
M  V30 1 O 2.598 0.0 0.0 0
M  V30 2 C 1.732 -0.5 0.0 0
M  V30 3 N 0.866 0.0 0.0 0
M  V30 4 C 1.732 -1.5 0.0 0
M  V30 5 C 0.0 -0.5 0.0 0
M  V30 6 C 0.866 -1.9999 0.0 0
M  V30 7 C 2.598 -2.0 0.0 0
M  V30 8 C -0.866 0.0 0.0 0
M  V30 9 C 0.0 -1.4999 0.0 0
M  V30 10 N 0.866 -2.9999 0.0 0
M  V30 11 C 2.598 -3.0 0.0 0
M  V30 12 N -0.866 1.0 0.0 0
M  V30 13 C -1.732 -0.4999 0.0 0
M  V30 14 C -0.866 -1.9999 0.0 0
M  V30 15 C 1.732 -3.5 0.0 0
M  V30 16 C -1.732 1.5 0.0 0
M  V30 17 C -1.732 -1.4999 0.0 0
M  V30 18 O 1.732 -4.5 0.0 0
M  V30 19 C -1.732 2.5 0.0 0
M  V30 20 C -2.598 1.0 0.0 0
M  V30 21 C -2.598 3.0 0.0 0
M  V30 22 C -3.4641 1.5 0.0 0
M  V30 23 C -3.4641 2.5 0.0 0
M  V30 24 O -4.3301 3.0 0.0 0
M  V30 25 C -5.1961 2.5 0.0 0
M  V30 END ATOM
M  V30 BEGIN BOND
M  V30 1 2 1 2
M  V30 2 1 2 3
M  V30 3 1 2 4
M  V30 4 1 3 5
M  V30 5 2 4 6
M  V30 6 1 4 7
M  V30 7 2 5 8
M  V30 8 1 5 9
M  V30 9 1 6 10
M  V30 10 2 7 11
M  V30 11 1 8 12
M  V30 12 1 8 13
M  V30 13 2 9 14
M  V30 14 2 10 15
M  V30 15 1 12 16
M  V30 16 2 13 17
M  V30 17 1 15 18
M  V30 18 2 16 19
M  V30 19 1 16 20
M  V30 20 1 19 21
M  V30 21 2 20 22
M  V30 22 2 21 23
M  V30 23 1 23 24
M  V30 24 1 24 25
M  V30 25 1 11 15
M  V30 26 1 14 17
M  V30 27 1 22 23
M  V30 END BOND
M  V30 END CTAB
M  END
>  <Rack>
PathogenBox_PlateA

>  <Position>
G11

>  <Compound ID>
MMV676554

>  <Disease Set>
TUBERCULOSIS

>  <Trivial Name>


>  <Total Molecular Weight>
335.36

>  <Molecular Weight Parent Molecule>
335.36

>  <Molecular Formula>
C19H17N3O3

>  <Salt Name>


>  <Salt Coefficient>


>  <cLogP>
3.27

>  <SMILES>
COc1ccc(Nc2ccccc2NC(=O)c3ccc(O)nc3)cc1

$$$$
Compound 71
Actelion Java MolfileCreator 2.0

  0  0  0  0  0  0              0 V3000
M  V30 BEGIN CTAB
M  V30 COUNTS 33 36 0 0 0
M  V30 BEGIN ATOM
M  V30 1 S 2.598 -0.75 0.0 0
M  V30 2 O 1.848 -2.049 0.0 0
M  V30 3 O 3.348 -2.049 0.0 0
M  V30 4 N 1.299 0.0 0.0 0
M  V30 5 C 3.8971 0.0 0.0 0
M  V30 6 C 0.0 -0.75 0.0 0
M  V30 7 C 5.1961 -0.75 0.0 0
M  V30 8 C 3.8971 1.5 0.0 0
M  V30 9 C -1.299 0.0 0.0 0
M  V30 10 C 0.0 -2.25 0.0 0
M  V30 11 C 6.4951 0.0 0.0 0
M  V30 12 C 5.1961 2.25 0.0 0
M  V30 13 C -1.299 1.5 0.0 0
M  V30 14 C -2.598 -0.75 0.0 0
M  V30 15 C -1.299 -3.0 0.0 0
M  V30 16 C 7.7942 -0.75 0.0 0
M  V30 17 C 6.4951 1.5 0.0 0
M  V30 18 O -2.598 2.25 0.0 0
M  V30 19 O 0.0 2.25 0.0 0
M  V30 20 C -2.598 -2.25 0.0 0
M  V30 21 F -1.299 -4.5 0.0 0
M  V30 22 C 7.951 -2.2417 0.0 0
M  V30 23 C 9.1645 -0.1398 0.0 0
M  V30 24 C 0.0 3.75 0.0 0
M  V30 25 N 9.4182 -2.5536 0.0 0
M  V30 26 N 10.1682 -1.2546 0.0 0
M  V30 27 C 11.66 -1.0978 0.0 0
M  V30 28 C 12.2701 0.2724 0.0 0
M  V30 29 C 13.7619 0.4292 0.0 0
M  V30 30 C 11.3884 1.486 0.0 0
M  V30 31 C 14.372 1.7996 0.0 0
M  V30 32 C 11.9985 2.8563 0.0 0
M  V30 33 C 13.4903 3.0131 0.0 0
M  V30 END ATOM
M  V30 BEGIN BOND
M  V30 1 2 1 2
M  V30 2 2 1 3
M  V30 3 1 1 4
M  V30 4 1 1 5
M  V30 5 1 4 6
M  V30 6 2 5 7
M  V30 7 1 5 8
M  V30 8 2 6 9
M  V30 9 1 6 10
M  V30 10 1 7 11
M  V30 11 2 8 12
M  V30 12 1 9 13
M  V30 13 1 9 14
M  V30 14 2 10 15
M  V30 15 1 11 16
M  V30 16 2 11 17
M  V30 17 2 13 18
M  V30 18 1 13 19
M  V30 19 2 14 20
M  V30 20 1 15 21
M  V30 21 1 16 22
M  V30 22 2 16 23
M  V30 23 1 19 24
M  V30 24 2 22 25
M  V30 25 1 23 26
M  V30 26 1 26 27
M  V30 27 1 27 28
M  V30 28 2 28 29
M  V30 29 1 28 30
M  V30 30 1 29 31
M  V30 31 2 30 32
M  V30 32 2 31 33
M  V30 33 1 12 17
M  V30 34 1 15 20
M  V30 35 1 25 26
M  V30 36 1 32 33
M  V30 END BOND
M  V30 END CTAB
M  END
>  <Rack>
PathogenBox_PlateA

>  <Position>
H02

>  <Compound ID>
MMV688350

>  <Disease Set>
DENGUE

>  <Trivial Name>


>  <Total Molecular Weight>
465.50

>  <Molecular Weight Parent Molecule>
465.50

>  <Molecular Formula>
C24H20N3O4FS

>  <Salt Name>


>  <Salt Coefficient>


>  <cLogP>
3.05

>  <SMILES>
COC(=O)c1ccc(F)cc1NS(=O)(=O)c2cccc(c2)c3cnn(Cc4ccccc4)c3

$$$$
Compound 72
Actelion Java MolfileCreator 2.0

  0  0  0  0  0  0              0 V3000
M  V30 BEGIN CTAB
M  V30 COUNTS 31 34 0 0 0
M  V30 BEGIN ATOM
M  V30 1 O 6.8278 7.2717 0.0 0
M  V30 2 C 5.9461 6.0582 0.0 0
M  V30 3 N 4.4461 6.0582 0.0 0
M  V30 4 C 6.4096 4.6316 0.0 0
M  V30 5 N 3.9826 4.6316 0.0 0
M  V30 6 C 3.5644 7.2717 0.0 0
M  V30 7 C 5.1961 3.75 0.0 0
M  V30 8 C 7.4133 3.5169 0.0 0
M  V30 9 C 7.8768 4.9435 0.0 0
M  V30 10 C 4.2752 8.5926 0.0 0
M  V30 11 C 2.0885 7.0039 0.0 0
M  V30 12 C 5.1961 2.25 0.0 0
M  V30 13 C 3.6857 9.9719 0.0 0
M  V30 14 C 0.9589 7.9908 0.0 0
M  V30 15 C 3.8971 1.5 0.0 0
M  V30 16 C 6.4951 1.5 0.0 0
M  V30 17 C 2.2397 10.371 0.0 0
M  V30 18 C 1.0262 9.4893 0.0 0
M  V30 19 C 3.8971 0.0 0.0 0
M  V30 20 C 6.4951 0.0 0.0 0
M  V30 21 O 2.598 -0.75 0.0 0
M  V30 22 C 5.1961 -0.75 0.0 0
M  V30 23 C 1.299 0.0 0.0 0
M  V30 24 O 5.1961 -2.25 0.0 0
M  V30 25 C 0.0 -0.75 0.0 0
M  V30 26 C 6.4951 -3.0 0.0 0
M  V30 27 N -1.299 0.0 0.0 0
M  V30 28 C 0.0 -2.25 0.0 0
M  V30 29 C -2.598 -0.75 0.0 0
M  V30 30 C -1.299 -3.0 0.0 0
M  V30 31 C -2.598 -2.25 0.0 0
M  V30 END ATOM
M  V30 BEGIN BOND
M  V30 1 2 1 2
M  V30 2 1 2 3
M  V30 3 1 2 4
M  V30 4 1 3 5
M  V30 5 1 3 6
M  V30 6 1 4 7
M  V30 7 1 4 8
M  V30 8 1 4 9
M  V30 9 1 6 10
M  V30 10 1 6 11
M  V30 11 1 7 12
M  V30 12 1 10 13
M  V30 13 1 11 14
M  V30 14 2 12 15
M  V30 15 1 12 16
M  V30 16 1 13 17
M  V30 17 1 14 18
M  V30 18 1 15 19
M  V30 19 2 16 20
M  V30 20 1 19 21
M  V30 21 2 19 22
M  V30 22 1 21 23
M  V30 23 1 22 24
M  V30 24 1 23 25
M  V30 25 1 24 26
M  V30 26 2 25 27
M  V30 27 1 25 28
M  V30 28 1 27 29
M  V30 29 2 28 30
M  V30 30 2 29 31
M  V30 31 2 5 7
M  V30 32 1 17 18
M  V30 33 1 20 22
M  V30 34 1 30 31
M  V30 END BOND
M  V30 END CTAB
M  END
>  <Rack>
PathogenBox_PlateA

>  <Position>
H03

>  <Compound ID>
MMV688360

>  <Disease Set>
KINETOPLASTIDS

>  <Trivial Name>


>  <Total Molecular Weight>
421.53

>  <Molecular Weight Parent Molecule>
421.53

>  <Molecular Formula>
C25H31N3O3

>  <Salt Name>


>  <Salt Coefficient>


>  <cLogP>
3.92

>  <SMILES>
COc1ccc(cc1OCc2ccccn2)C3=NN(C4CCCCCC4)C(=O)C3(C)C

$$$$
Compound 73
Actelion Java MolfileCreator 2.0

  0  0  0  0  0  0              0 V3000
M  V30 BEGIN CTAB
M  V30 COUNTS 22 25 0 0 0
M  V30 BEGIN ATOM
M  V30 1 F 3.4641 1.4999 0.0 0
M  V30 2 C 2.598 0.9999 0.0 0
M  V30 3 C 1.732 1.4999 0.0 0
M  V30 4 C 2.598 0.0 0.0 0
M  V30 5 C 0.866 0.9999 0.0 0
M  V30 6 C 1.732 -0.5 0.0 0
M  V30 7 C 0.866 0.0 0.0 0
M  V30 8 C 0.0 -0.5 0.0 0
M  V30 9 C -0.9135 -0.0932 0.0 0
M  V30 10 C -0.1045 -1.4945 0.0 0
M  V30 11 N -1.2225 0.8577 0.0 0
M  V30 12 N -1.5826 -0.8364 0.0 0
M  V30 13 N -1.0826 -1.7024 0.0 0
M  V30 14 C 0.6386 -2.1636 0.0 0
M  V30 15 C -2.2007 1.0657 0.0 0
M  V30 16 C -2.5608 -0.6284 0.0 0
M  V30 17 C -2.8698 0.3225 0.0 0
M  V30 18 C -2.5097 2.0167 0.0 0
M  V30 19 O -3.2299 -1.3716 0.0 0
M  V30 20 C -3.8479 0.5304 0.0 0
M  V30 21 C -3.4878 2.2246 0.0 0
M  V30 22 C -4.157 1.4815 0.0 0
M  V30 END ATOM
M  V30 BEGIN BOND
M  V30 1 1 1 2
M  V30 2 2 2 3
M  V30 3 1 2 4
M  V30 4 1 3 5
M  V30 5 2 4 6
M  V30 6 2 5 7
M  V30 7 1 7 8
M  V30 8 2 8 9
M  V30 9 1 8 10
M  V30 10 1 9 11
M  V30 11 1 9 12
M  V30 12 2 10 13
M  V30 13 1 10 14
M  V30 14 2 11 15
M  V30 15 1 12 16
M  V30 16 1 15 17
M  V30 17 1 15 18
M  V30 18 1 16 19
M  V30 19 1 17 20
M  V30 20 1 18 21
M  V30 21 1 20 22
M  V30 22 1 6 7
M  V30 23 1 12 13
M  V30 24 2 16 17
M  V30 25 1 21 22
M  V30 END BOND
M  V30 END CTAB
M  END
>  <Rack>
PathogenBox_PlateA

>  <Position>
H04

>  <Compound ID>
MMV099637

>  <Disease Set>
KINETOPLASTIDS

>  <Trivial Name>


>  <Total Molecular Weight>
297.33

>  <Molecular Weight Parent Molecule>
297.33

>  <Molecular Formula>
C17H16N3OF

>  <Salt Name>


>  <Salt Coefficient>


>  <cLogP>
2.94

>  <SMILES>
Cc1nn2c(O)c3CCCCc3nc2c1c4ccc(F)cc4

$$$$
Compound 74
Actelion Java MolfileCreator 2.0

  0  0  0  0  0  0              0 V3000
M  V30 BEGIN CTAB
M  V30 COUNTS 26 28 0 0 0
M  V30 BEGIN ATOM
M  V30 1 S 4.3301 1.0 0.0 0
M  V30 2 O 4.8301 1.866 0.0 0
M  V30 3 O 3.8301 0.1339 0.0 0
M  V30 4 C 3.4641 1.5 0.0 0
M  V30 5 C 5.1961 0.5 0.0 0
M  V30 6 C 2.598 1.0 0.0 0
M  V30 7 C 3.4641 2.5 0.0 0
M  V30 8 C 2.598 0.0 0.0 0
M  V30 9 C 1.732 1.4999 0.0 0
M  V30 10 C 2.598 3.0 0.0 0
M  V30 11 O 3.4641 -0.4999 0.0 0
M  V30 12 N 1.732 -0.5 0.0 0
M  V30 13 C 1.732 2.4999 0.0 0
M  V30 14 C 1.732 -1.5 0.0 0
M  V30 15 C 0.866 0.0 0.0 0
M  V30 16 C 0.866 -1.9999 0.0 0
M  V30 17 C 2.598 -2.0 0.0 0
M  V30 18 C 0.0 -0.5 0.0 0
M  V30 19 C 0.866 -2.9999 0.0 0
M  V30 20 C 2.598 -3.0 0.0 0
M  V30 21 C -0.866 0.0 0.0 0
M  V30 22 C 0.0 -1.4999 0.0 0
M  V30 23 C 1.732 -3.5 0.0 0
M  V30 24 C -1.732 -0.4999 0.0 0
M  V30 25 C -0.866 -1.9999 0.0 0
M  V30 26 C -1.732 -1.4999 0.0 0
M  V30 END ATOM
M  V30 BEGIN BOND
M  V30 1 2 1 2
M  V30 2 2 1 3
M  V30 3 1 1 4
M  V30 4 1 1 5
M  V30 5 2 4 6
M  V30 6 1 4 7
M  V30 7 1 6 8
M  V30 8 1 6 9
M  V30 9 2 7 10
M  V30 10 2 8 11
M  V30 11 1 8 12
M  V30 12 2 9 13
M  V30 13 1 12 14
M  V30 14 1 12 15
M  V30 15 2 14 16
M  V30 16 1 14 17
M  V30 17 1 15 18
M  V30 18 1 16 19
M  V30 19 2 17 20
M  V30 20 2 18 21
M  V30 21 1 18 22
M  V30 22 2 19 23
M  V30 23 1 21 24
M  V30 24 2 22 25
M  V30 25 2 24 26
M  V30 26 1 10 13
M  V30 27 1 20 23
M  V30 28 1 25 26
M  V30 END BOND
M  V30 END CTAB
M  END
>  <Rack>
PathogenBox_PlateA

>  <Position>
H05

>  <Compound ID>
MMV688798

>  <Disease Set>
KINETOPLASTIDS

>  <Trivial Name>


>  <Total Molecular Weight>
365.45

>  <Molecular Weight Parent Molecule>
365.45

>  <Molecular Formula>
C21H19NO3S

>  <Salt Name>


>  <Salt Coefficient>


>  <cLogP>
3.48

>  <SMILES>
CS(=O)(=O)c1ccccc1C(=O)N(Cc2ccccc2)c3ccccc3

$$$$
Compound 75
Actelion Java MolfileCreator 2.0

  0  0  0  0  0  0              0 V3000
M  V30 BEGIN CTAB
M  V30 COUNTS 25 28 0 0 0
M  V30 BEGIN ATOM
M  V30 1 O 7.7942 -2.25 0.0 0
M  V30 2 C 7.7942 -0.75 0.0 0
M  V30 3 O 9.0932 0.0 0.0 0
M  V30 4 C 6.4951 0.0 0.0 0
M  V30 5 C 9.0932 1.4999 0.0 0
M  V30 6 C 5.1961 -0.75 0.0 0
M  V30 7 C 6.4951 1.4999 0.0 0
M  V30 8 C 7.7942 2.2499 0.0 0
M  V30 9 C 10.3923 2.25 0.0 0
M  V30 10 O 5.1961 -2.25 0.0 0
M  V30 11 N 3.8971 0.0 0.0 0
M  V30 12 C 7.7942 3.75 0.0 0
M  V30 13 C 10.3923 3.75 0.0 0
M  V30 14 C 2.598 -0.75 0.0 0
M  V30 15 C 9.0932 4.5 0.0 0
M  V30 16 C 1.299 0.0 0.0 0
M  V30 17 C 0.0 -0.75 0.0 0
M  V30 18 C -1.3703 -0.1398 0.0 0
M  V30 19 C -0.1567 -2.2417 0.0 0
M  V30 20 C -2.374 -1.2546 0.0 0
M  V30 21 C -1.8338 1.2866 0.0 0
M  V30 22 N -1.624 -2.5536 0.0 0
M  V30 23 C -3.8412 -0.9427 0.0 0
M  V30 24 C -3.301 1.5985 0.0 0
M  V30 25 C -4.3047 0.4838 0.0 0
M  V30 END ATOM
M  V30 BEGIN BOND
M  V30 1 2 1 2
M  V30 2 1 2 3
M  V30 3 1 2 4
M  V30 4 1 3 5
M  V30 5 1 4 6
M  V30 6 2 4 7
M  V30 7 2 5 8
M  V30 8 1 5 9
M  V30 9 2 6 10
M  V30 10 1 6 11
M  V30 11 1 8 12
M  V30 12 2 9 13
M  V30 13 1 11 14
M  V30 14 2 12 15
M  V30 15 1 14 16
M  V30 16 1 16 17
M  V30 17 1 17 18
M  V30 18 2 17 19
M  V30 19 2 18 20
M  V30 20 1 18 21
M  V30 21 1 19 22
M  V30 22 1 20 23
M  V30 23 2 21 24
M  V30 24 2 23 25
M  V30 25 1 7 8
M  V30 26 1 13 15
M  V30 27 1 20 22
M  V30 28 1 24 25
M  V30 END BOND
M  V30 END CTAB
M  END
>  <Rack>
PathogenBox_PlateA

>  <Position>
H06

>  <Compound ID>
MMV676539

>  <Disease Set>
TUBERCULOSIS

>  <Trivial Name>


>  <Total Molecular Weight>
332.35

>  <Molecular Weight Parent Molecule>
332.35

>  <Molecular Formula>
C20H16N2O3

>  <Salt Name>


>  <Salt Coefficient>


>  <cLogP>
2.50

>  <SMILES>
O=C(NCCc1c[nH]c2ccccc12)C3=Cc4ccccc4OC3=O

$$$$
Compound 76
Actelion Java MolfileCreator 2.0

  0  0  0  0  0  0              0 V3000
M  V30 BEGIN CTAB
M  V30 COUNTS 22 23 0 0 0
M  V30 BEGIN ATOM
M  V30 1 Cl 6.9282 1.4999 0.0 0
M  V30 2 C 6.0621 0.9999 0.0 0
M  V30 3 C 5.1961 1.4999 0.0 0
M  V30 4 C 6.0621 0.0 0.0 0
M  V30 5 C 4.3301 0.9999 0.0 0
M  V30 6 C 5.1961 -0.5 0.0 0
M  V30 7 C 4.3301 0.0 0.0 0
M  V30 8 C 3.4641 1.5 0.0 0
M  V30 9 N 3.4641 -0.5 0.0 0
M  V30 10 C 2.598 0.0 0.0 0
M  V30 11 O 2.598 1.0 0.0 0
M  V30 12 C 1.732 -0.5 0.0 0 CFG=1
M  V30 13 O 0.866 0.0 0.0 0
M  V30 14 C 1.732 -1.5 0.0 0
M  V30 15 C 0.0 -0.5 0.0 0
M  V30 16 C -0.866 0.0 0.0 0
M  V30 17 C 0.0 -1.4999 0.0 0
M  V30 18 C -1.732 -0.4999 0.0 0
M  V30 19 C -0.866 -1.9999 0.0 0
M  V30 20 C -1.732 -1.4999 0.0 0
M  V30 21 O -2.598 -1.9999 0.0 0
M  V30 22 C -2.598 -2.9999 0.0 0
M  V30 END ATOM
M  V30 BEGIN BOND
M  V30 1 1 1 2
M  V30 2 2 2 3
M  V30 3 1 2 4
M  V30 4 1 3 5
M  V30 5 2 4 6
M  V30 6 2 5 7
M  V30 7 1 5 8
M  V30 8 1 7 9
M  V30 9 1 9 10
M  V30 10 2 10 11
M  V30 11 1 12 10
M  V30 12 1 12 13 CFG=3
M  V30 13 1 12 14
M  V30 14 1 13 15
M  V30 15 2 15 16
M  V30 16 1 15 17
M  V30 17 1 16 18
M  V30 18 2 17 19
M  V30 19 2 18 20
M  V30 20 1 20 21
M  V30 21 1 21 22
M  V30 22 1 6 7
M  V30 23 1 19 20
M  V30 END BOND
M  V30 BEGIN COLLECTION
M  V30 MDLV30/STERAC1 ATOMS=(1 12)
M  V30 END COLLECTION
M  V30 END CTAB
M  END
>  <Rack>
PathogenBox_PlateA

>  <Position>
H07

>  <Compound ID>
MMV202458

>  <Disease Set>
TUBERCULOSIS

>  <Trivial Name>


>  <Total Molecular Weight>
319.79

>  <Molecular Weight Parent Molecule>
319.79

>  <Molecular Formula>
C17H18NO3Cl

>  <Salt Name>


>  <Salt Coefficient>


>  <cLogP>
3.62

>  <SMILES>
COc1ccc(OC(C)C(=O)Nc2ccc(Cl)cc2C)cc1

$$$$
Compound 77
Actelion Java MolfileCreator 2.0

  0  0  0  0  0  0              0 V3000
M  V30 BEGIN CTAB
M  V30 COUNTS 25 28 0 0 0
M  V30 BEGIN ATOM
M  V30 1 O 4.3301 0.0 0.0 0
M  V30 2 C 5.1961 -0.5 0.0 0
M  V30 3 C 3.4641 -0.5 0.0 0
M  V30 4 C 5.1961 -1.5 0.0 0
M  V30 5 C 6.0621 0.0 0.0 0
M  V30 6 C 2.598 0.0 0.0 0
M  V30 7 O 4.3301 -1.9999 0.0 0
M  V30 8 C 6.0621 -2.0 0.0 0
M  V30 9 C 6.9282 -0.5 0.0 0
M  V30 10 C 1.732 -0.5 0.0 0
M  V30 11 C 4.3301 -2.9999 0.0 0
M  V30 12 C 6.9282 -1.5 0.0 0
M  V30 13 C 0.866 0.0 0.0 0
M  V30 14 N 0.0 -0.5 0.0 0
M  V30 15 C -0.9135 -0.0932 0.0 0
M  V30 16 C -0.1045 -1.4945 0.0 0
M  V30 17 C -1.5826 -0.8364 0.0 0
M  V30 18 C -1.2225 0.8577 0.0 0
M  V30 19 N -1.0826 -1.7024 0.0 0
M  V30 20 C 0.6386 -2.1636 0.0 0
M  V30 21 C -2.5608 -0.6284 0.0 0
M  V30 22 C -2.2007 1.0657 0.0 0
M  V30 23 C 0.9476 -3.1147 0.0 0
M  V30 24 C 1.6167 -2.3715 0.0 0
M  V30 25 C -2.8698 0.3225 0.0 0
M  V30 END ATOM
M  V30 BEGIN BOND
M  V30 1 1 1 2
M  V30 2 1 1 3
M  V30 3 2 2 4
M  V30 4 1 2 5
M  V30 5 1 3 6
M  V30 6 1 4 7
M  V30 7 1 4 8
M  V30 8 2 5 9
M  V30 9 1 6 10
M  V30 10 1 7 11
M  V30 11 2 8 12
M  V30 12 1 10 13
M  V30 13 1 13 14
M  V30 14 1 14 15
M  V30 15 1 14 16
M  V30 16 2 15 17
M  V30 17 1 15 18
M  V30 18 2 16 19
M  V30 19 1 16 20
M  V30 20 1 17 21
M  V30 21 2 18 22
M  V30 22 1 20 23
M  V30 23 1 20 24
M  V30 24 2 21 25
M  V30 25 1 9 12
M  V30 26 1 17 19
M  V30 27 1 22 25
M  V30 28 1 23 24
M  V30 END BOND
M  V30 END CTAB
M  END
>  <Rack>
PathogenBox_PlateA

>  <Position>
H08

>  <Compound ID>
MMV676474

>  <Disease Set>
TUBERCULOSIS

>  <Trivial Name>


>  <Total Molecular Weight>
336.43

>  <Molecular Weight Parent Molecule>
336.43

>  <Molecular Formula>
C21H24N2O2

>  <Salt Name>


>  <Salt Coefficient>


>  <cLogP>
4.51

>  <SMILES>
COc1ccccc1OCCCCn2c(nc3ccccc23)C4CC4

$$$$
Compound 78
Actelion Java MolfileCreator 2.0

  0  0  0  0  0  0              0 V3000
M  V30 BEGIN CTAB
M  V30 COUNTS 28 30 0 0 0
M  V30 BEGIN ATOM
M  V30 1 S 2.7026 0.9945 0.0 0
M  V30 2 C 2.598 0.0 0.0 0
M  V30 3 C 3.6807 1.2024 0.0 0
M  V30 4 N 1.732 -0.5 0.0 0
M  V30 5 C 3.5116 -0.4067 0.0 0
M  V30 6 C 4.1807 0.3364 0.0 0
M  V30 7 C 4.046 2.1333 0.0 0
M  V30 8 C 0.866 0.0 0.0 0
M  V30 9 C 3.7195 -1.3848 0.0 0
M  V30 10 C 5.1695 0.1873 0.0 0
M  V30 11 C 5.0016 2.428 0.0 0
M  V30 12 O 0.866 1.0 0.0 0
M  V30 13 C 0.0 -0.5 0.0 0
M  V30 14 O 4.6705 -1.6939 0.0 0
M  V30 15 O 2.9763 -2.054 0.0 0
M  V30 16 C 5.9026 0.8675 0.0 0
M  V30 17 C 5.8279 1.8647 0.0 0
M  V30 18 C -0.866 0.0 0.0 0
M  V30 19 C 0.0 -1.4999 0.0 0
M  V30 20 C 3.1843 -3.0321 0.0 0
M  V30 21 F -0.866 1.0 0.0 0
M  V30 22 C -1.732 -0.4999 0.0 0
M  V30 23 F 0.866 -2.0 0.0 0
M  V30 24 C -0.866 -1.9999 0.0 0
M  V30 25 F -2.598 0.0 0.0 0
M  V30 26 C -1.732 -1.4999 0.0 0
M  V30 27 F -0.866 -2.9999 0.0 0
M  V30 28 F -2.598 -1.9999 0.0 0
M  V30 END ATOM
M  V30 BEGIN BOND
M  V30 1 1 1 2
M  V30 2 1 1 3
M  V30 3 1 2 4
M  V30 4 2 2 5
M  V30 5 2 3 6
M  V30 6 1 3 7
M  V30 7 1 4 8
M  V30 8 1 5 9
M  V30 9 1 6 10
M  V30 10 1 7 11
M  V30 11 2 8 12
M  V30 12 1 8 13
M  V30 13 2 9 14
M  V30 14 1 9 15
M  V30 15 1 10 16
M  V30 16 1 11 17
M  V30 17 2 13 18
M  V30 18 1 13 19
M  V30 19 1 15 20
M  V30 20 1 18 21
M  V30 21 1 18 22
M  V30 22 1 19 23
M  V30 23 2 19 24
M  V30 24 1 22 25
M  V30 25 2 22 26
M  V30 26 1 24 27
M  V30 27 1 26 28
M  V30 28 1 5 6
M  V30 29 1 16 17
M  V30 30 1 24 26
M  V30 END BOND
M  V30 END CTAB
M  END
>  <Rack>
PathogenBox_PlateA

>  <Position>
H09

>  <Compound ID>
MMV461553

>  <Disease Set>
TUBERCULOSIS

>  <Trivial Name>


>  <Total Molecular Weight>
419.37

>  <Molecular Weight Parent Molecule>
419.37

>  <Molecular Formula>
C18H14NO3F5S

>  <Salt Name>


>  <Salt Coefficient>


>  <cLogP>
4.78

>  <SMILES>
COC(=O)c1c2CCCCCc2sc1NC(=O)c3c(F)c(F)c(F)c(F)c3F

$$$$
Compound 79
Actelion Java MolfileCreator 2.0

  0  0  0  0  0  0              0 V3000
M  V30 BEGIN CTAB
M  V30 COUNTS 27 31 0 0 0
M  V30 BEGIN ATOM
M  V30 1 O 7.7942 -2.25 0.0 0
M  V30 2 C 6.4951 -3.0 0.0 0
M  V30 3 N 5.1961 -2.25 0.0 0
M  V30 4 C 6.4951 -4.5 0.0 0
M  V30 5 C 5.1961 -0.75 0.0 0
M  V30 6 C 3.8971 -2.9999 0.0 0
M  V30 7 O 5.2816 -5.3816 0.0 0
M  V30 8 C 7.7087 -5.3816 0.0 0
M  V30 9 C 3.8971 0.0 0.0 0
M  V30 10 C 2.598 -2.25 0.0 0
M  V30 11 C 5.7451 -6.8082 0.0 0
M  V30 12 C 7.2451 -6.8082 0.0 0
M  V30 13 N 2.598 -0.75 0.0 0
M  V30 14 C 4.9951 -8.1073 0.0 0
M  V30 15 C 7.9951 -8.1073 0.0 0
M  V30 16 C 1.299 0.0 0.0 0
M  V30 17 C 5.7451 -9.4063 0.0 0
M  V30 18 C 7.2451 -9.4063 0.0 0
M  V30 19 C 0.0 -0.75 0.0 0
M  V30 20 C -1.299 0.0 0.0 0
M  V30 21 C 0.0 -2.2499 0.0 0
M  V30 22 C -2.598 -0.7499 0.0 0
M  V30 23 C -1.299 -2.9999 0.0 0
M  V30 24 O -4.0246 -0.2864 0.0 0
M  V30 25 C -2.598 -2.2499 0.0 0
M  V30 26 C -4.9063 -1.4999 0.0 0
M  V30 27 O -4.0246 -2.7135 0.0 0
M  V30 END ATOM
M  V30 BEGIN BOND
M  V30 1 2 1 2
M  V30 2 1 2 3
M  V30 3 1 2 4
M  V30 4 1 3 5
M  V30 5 1 3 6
M  V30 6 1 4 7
M  V30 7 2 4 8
M  V30 8 1 5 9
M  V30 9 1 6 10
M  V30 10 1 7 11
M  V30 11 1 8 12
M  V30 12 1 9 13
M  V30 13 1 11 14
M  V30 14 1 12 15
M  V30 15 1 13 16
M  V30 16 2 14 17
M  V30 17 2 15 18
M  V30 18 1 16 19
M  V30 19 2 19 20
M  V30 20 1 19 21
M  V30 21 1 20 22
M  V30 22 2 21 23
M  V30 23 1 22 24
M  V30 24 2 22 25
M  V30 25 1 24 26
M  V30 26 1 25 27
M  V30 27 1 10 13
M  V30 28 2 11 12
M  V30 29 1 17 18
M  V30 30 1 23 25
M  V30 31 1 26 27
M  V30 END BOND
M  V30 END CTAB
M  END
>  <Rack>
PathogenBox_PlateA

>  <Position>
H10

>  <Compound ID>
MMV676520

>  <Disease Set>
TUBERCULOSIS

>  <Trivial Name>


>  <Total Molecular Weight>
364.39

>  <Molecular Weight Parent Molecule>
364.39

>  <Molecular Formula>
C21H20N2O4

>  <Salt Name>


>  <Salt Coefficient>


>  <cLogP>
3.48

>  <SMILES>
O=C(N1CCN(Cc2ccc3OCOc3c2)CC1)c4oc5ccccc5c4

$$$$
Compound 80
Actelion Java MolfileCreator 2.0

  0  0  0  0  0  0              0 V3000
M  V30 BEGIN CTAB
M  V30 COUNTS 25 28 0 0 0
M  V30 BEGIN ATOM
M  V30 1 S 2.7026 0.9945 0.0 0
M  V30 2 C 2.598 0.0 0.0 0
M  V30 3 C 3.6807 1.2024 0.0 0
M  V30 4 N 3.5116 -0.4067 0.0 0
M  V30 5 N 1.732 -0.5 0.0 0
M  V30 6 C 4.1807 0.3364 0.0 0
M  V30 7 C 0.866 0.0 0.0 0
M  V30 8 C 5.1752 0.2318 0.0 0
M  V30 9 O 0.866 1.0 0.0 0
M  V30 10 C 0.0 -0.5 0.0 0
M  V30 11 N 5.582 -0.6816 0.0 0
M  V30 12 C 5.763 1.0408 0.0 0
M  V30 13 N -0.9135 -0.0932 0.0 0
M  V30 14 C -0.1045 -1.4945 0.0 0
M  V30 15 C 6.5765 -0.7861 0.0 0
M  V30 16 C 6.7575 0.9363 0.0 0
M  V30 17 C -1.1214 0.8848 0.0 0
M  V30 18 C -1.5826 -0.8364 0.0 0
M  V30 19 N -1.0826 -1.7024 0.0 0
M  V30 20 C 7.1643 0.0228 0.0 0
M  V30 21 C -0.3783 1.554 0.0 0
M  V30 22 C -2.0725 1.1939 0.0 0
M  V30 23 C -0.5862 2.5321 0.0 0
M  V30 24 C -2.2804 2.172 0.0 0
M  V30 25 C -1.5372 2.8411 0.0 0
M  V30 END ATOM
M  V30 BEGIN BOND
M  V30 1 1 1 2
M  V30 2 1 1 3
M  V30 3 2 2 4
M  V30 4 1 2 5
M  V30 5 2 3 6
M  V30 6 1 5 7
M  V30 7 1 6 8
M  V30 8 2 7 9
M  V30 9 1 7 10
M  V30 10 2 8 11
M  V30 11 1 8 12
M  V30 12 1 10 13
M  V30 13 2 10 14
M  V30 14 1 11 15
M  V30 15 2 12 16
M  V30 16 1 13 17
M  V30 17 1 13 18
M  V30 18 1 14 19
M  V30 19 2 15 20
M  V30 20 2 17 21
M  V30 21 1 17 22
M  V30 22 1 21 23
M  V30 23 2 22 24
M  V30 24 2 23 25
M  V30 25 1 4 6
M  V30 26 1 16 20
M  V30 27 2 18 19
M  V30 28 1 24 25
M  V30 END BOND
M  V30 END CTAB
M  END
>  <Rack>
PathogenBox_PlateA

>  <Position>
H11

>  <Compound ID>
MMV676512

>  <Disease Set>
TUBERCULOSIS

>  <Trivial Name>


>  <Total Molecular Weight>
347.39

>  <Molecular Weight Parent Molecule>
347.39

>  <Molecular Formula>
C18H13N5OS

>  <Salt Name>


>  <Salt Coefficient>


>  <cLogP>
2.95

>  <SMILES>
O=C(Nc1nc(cs1)c2ccccn2)c3cncn3c4ccccc4

$$$$
Compound 81
Actelion Java MolfileCreator 2.0

  0  0  0  0  0  0              0 V3000
M  V30 BEGIN CTAB
M  V30 COUNTS 34 38 0 0 0
M  V30 BEGIN ATOM
M  V30 1 S 2.7026 0.9945 0.0 0
M  V30 2 C 2.598 0.0 0.0 0
M  V30 3 C 3.6807 1.2024 0.0 0
M  V30 4 N 1.732 -0.5 0.0 0
M  V30 5 C 3.5116 -0.4067 0.0 0
M  V30 6 C 4.1807 0.3364 0.0 0
M  V30 7 C 4.1807 2.0684 0.0 0
M  V30 8 C 0.866 0.0 0.0 0
M  V30 9 C 3.7195 -1.3848 0.0 0
M  V30 10 C 5.1807 0.3364 0.0 0
M  V30 11 N 5.1807 2.0684 0.0 0
M  V30 12 O 0.866 1.0 0.0 0
M  V30 13 C 0.0 -0.5 0.0 0
M  V30 14 O 4.6705 -1.6939 0.0 0
M  V30 15 O 2.9763 -2.054 0.0 0
M  V30 16 C 5.6807 1.2024 0.0 0
M  V30 17 C 5.6807 2.9344 0.0 0
M  V30 18 C -0.866 0.0 0.0 0
M  V30 19 C 0.0 -1.4999 0.0 0
M  V30 20 C 3.1843 -3.0321 0.0 0
M  V30 21 C 5.1807 3.8005 0.0 0
M  V30 22 O -0.866 1.0 0.0 0
M  V30 23 O -1.732 -0.4999 0.0 0
M  V30 24 C -0.866 -1.9999 0.0 0
M  V30 25 C 5.6807 4.6665 0.0 0
M  V30 26 C 4.1807 3.8005 0.0 0
M  V30 27 C -1.732 -1.4999 0.0 0
M  V30 28 C -0.866 -2.9999 0.0 0
M  V30 29 C 5.1807 5.5325 0.0 0
M  V30 30 C 3.6807 4.6665 0.0 0
M  V30 31 C -2.598 -1.9999 0.0 0
M  V30 32 C -1.732 -3.4999 0.0 0
M  V30 33 C 4.1807 5.5325 0.0 0
M  V30 34 C -2.598 -2.9999 0.0 0
M  V30 END ATOM
M  V30 BEGIN BOND
M  V30 1 1 1 2
M  V30 2 1 1 3
M  V30 3 1 2 4
M  V30 4 2 2 5
M  V30 5 2 3 6
M  V30 6 1 3 7
M  V30 7 1 4 8
M  V30 8 1 5 9
M  V30 9 1 6 10
M  V30 10 1 7 11
M  V30 11 2 8 12
M  V30 12 1 8 13
M  V30 13 2 9 14
M  V30 14 1 9 15
M  V30 15 1 10 16
M  V30 16 1 11 17
M  V30 17 1 13 18
M  V30 18 2 13 19
M  V30 19 1 15 20
M  V30 20 1 17 21
M  V30 21 2 18 22
M  V30 22 1 18 23
M  V30 23 1 19 24
M  V30 24 2 21 25
M  V30 25 1 21 26
M  V30 26 1 23 27
M  V30 27 1 24 28
M  V30 28 1 25 29
M  V30 29 2 26 30
M  V30 30 1 27 31
M  V30 31 2 28 32
M  V30 32 2 29 33
M  V30 33 2 31 34
M  V30 34 1 5 6
M  V30 35 1 11 16
M  V30 36 2 24 27
M  V30 37 1 30 33
M  V30 38 1 32 34
M  V30 END BOND
M  V30 END CTAB
M  END
>  <Rack>
PathogenBox_PlateB

>  <Position>
A02

>  <Compound ID>
MMV676480

>  <Disease Set>
ONCHOCERCIASIS

>  <Trivial Name>


>  <Total Molecular Weight>
474.53

>  <Molecular Weight Parent Molecule>
474.53

>  <Molecular Formula>
C26H22N2O5S

>  <Salt Name>


>  <Salt Coefficient>


>  <cLogP>
3.43

>  <SMILES>
COC(=O)c1c2CCN(Cc3ccccc3)Cc2sc1NC(=O)C4=Cc5ccccc5OC4=O

$$$$
Compound 82
Actelion Java MolfileCreator 2.0

  0  0  0  0  0  0              0 V3000
M  V30 BEGIN CTAB
M  V30 COUNTS 23 25 0 0 0
M  V30 BEGIN ATOM
M  V30 1 F 1.232 0.6339 0.0 0
M  V30 2 C 1.732 1.4999 0.0 0
M  V30 3 F 0.866 1.9999 0.0 0
M  V30 4 F 2.232 2.366 0.0 0
M  V30 5 C 2.598 1.0 0.0 0
M  V30 6 C 2.598 0.0 0.0 0
M  V30 7 C 3.4641 1.4999 0.0 0
M  V30 8 C 1.732 -0.5 0.0 0
M  V30 9 C 3.4641 -0.5 0.0 0
M  V30 10 C 4.3301 1.0 0.0 0
M  V30 11 O 1.732 -1.5 0.0 0
M  V30 12 N 0.866 0.0 0.0 0
M  V30 13 C 4.3301 0.0 0.0 0
M  V30 14 C 0.0 -0.5 0.0 0
M  V30 15 C 0.0 -1.4999 0.0 0
M  V30 16 C -0.866 0.0 0.0 0
M  V30 17 C -0.866 -1.9999 0.0 0
M  V30 18 C -1.732 -0.4999 0.0 0
M  V30 19 C -1.732 -1.4999 0.0 0
M  V30 20 B -1.0739 -2.9781 0.0 0
M  V30 21 C -2.4751 -2.1691 0.0 0
M  V30 22 O -2.0684 -3.0826 0.0 0
M  V30 23 O -0.4048 -3.7212 0.0 0
M  V30 END ATOM
M  V30 BEGIN BOND
M  V30 1 1 1 2
M  V30 2 1 2 3
M  V30 3 1 2 4
M  V30 4 1 2 5
M  V30 5 2 5 6
M  V30 6 1 5 7
M  V30 7 1 6 8
M  V30 8 1 6 9
M  V30 9 2 7 10
M  V30 10 2 8 11
M  V30 11 1 8 12
M  V30 12 2 9 13
M  V30 13 1 12 14
M  V30 14 2 14 15
M  V30 15 1 14 16
M  V30 16 1 15 17
M  V30 17 2 16 18
M  V30 18 2 17 19
M  V30 19 1 17 20
M  V30 20 1 19 21
M  V30 21 1 20 22
M  V30 22 1 20 23
M  V30 23 1 10 13
M  V30 24 1 18 19
M  V30 25 1 21 22
M  V30 END BOND
M  V30 END CTAB
M  END
>  <Rack>
PathogenBox_PlateB

>  <Position>
A03

>  <Compound ID>
MMV652003

>  <Disease Set>
KINETOPLASTIDS

>  <Trivial Name>


>  <Total Molecular Weight>
321.06

>  <Molecular Weight Parent Molecule>
321.06

>  <Molecular Formula>
C15H11NO3BF3

>  <Salt Name>


>  <Salt Coefficient>


>  <cLogP>
2.62

>  <SMILES>
OB1OCc2ccc(NC(=O)c3ccccc3C(F)(F)F)cc12

$$$$
Compound 83
Actelion Java MolfileCreator 2.0

  0  0  0  0  0  0              0 V3000
M  V30 BEGIN CTAB
M  V30 COUNTS 25 26 0 0 0
M  V30 BEGIN ATOM
M  V30 1 O 6.0621 0.0 0.0 0
M  V30 2 C 6.9282 -0.5 0.0 0
M  V30 3 C 5.1961 -0.5 0.0 0
M  V30 4 C 6.9282 -1.5 0.0 0
M  V30 5 C 7.7942 0.0 0.0 0
M  V30 6 C 4.3301 0.0 0.0 0
M  V30 7 C 7.7942 -2.0 0.0 0
M  V30 8 C 8.6602 -0.5 0.0 0
M  V30 9 C 3.4641 -0.5 0.0 0
M  V30 10 C 8.6602 -1.4999 0.0 0
M  V30 11 C 2.598 0.0 0.0 0
M  V30 12 C 9.5262 -2.0 0.0 0
M  V30 13 C 1.732 -0.5 0.0 0
M  V30 14 N 9.5262 -3.0 0.0 0
M  V30 15 N 10.3923 -1.5 0.0 0
M  V30 16 O 0.866 0.0 0.0 0
M  V30 17 C 0.0 -0.5 0.0 0
M  V30 18 C -0.866 0.0 0.0 0
M  V30 19 C 0.0 -1.4999 0.0 0
M  V30 20 C -1.732 -0.4999 0.0 0
M  V30 21 C -0.866 -1.9999 0.0 0
M  V30 22 C -1.732 -1.4999 0.0 0
M  V30 23 C -2.598 -1.9999 0.0 0
M  V30 24 N -3.4641 -1.4999 0.0 0
M  V30 25 N -2.598 -2.9999 0.0 0
M  V30 END ATOM
M  V30 BEGIN BOND
M  V30 1 1 1 2
M  V30 2 1 1 3
M  V30 3 2 2 4
M  V30 4 1 2 5
M  V30 5 1 3 6
M  V30 6 1 4 7
M  V30 7 2 5 8
M  V30 8 1 6 9
M  V30 9 2 7 10
M  V30 10 1 9 11
M  V30 11 1 10 12
M  V30 12 1 11 13
M  V30 13 2 12 14
M  V30 14 1 12 15
M  V30 15 1 13 16
M  V30 16 1 16 17
M  V30 17 2 17 18
M  V30 18 1 17 19
M  V30 19 1 18 20
M  V30 20 2 19 21
M  V30 21 2 20 22
M  V30 22 1 22 23
M  V30 23 2 23 24
M  V30 24 1 23 25
M  V30 25 1 8 10
M  V30 26 1 21 22
M  V30 END BOND
M  V30 END CTAB
M  END
>  <Rack>
PathogenBox_PlateB

>  <Position>
A04

>  <Compound ID>
MMV000062

>  <Disease Set>
REFERENCE COMPOUNDS

>  <Trivial Name>
Pentamidine

>  <Total Molecular Weight>
592.69

>  <Molecular Weight Parent Molecule>
340.43

>  <Molecular Formula>
C19H24N4O2

>  <Salt Name>
Isethionic Acid

>  <Salt Coefficient>
2

>  <cLogP>
1.75

>  <SMILES>
NC(=N)c1ccc(OCCCCCOc2ccc(cc2)C(=N)N)cc1

$$$$
Compound 84
Actelion Java MolfileCreator 2.0

  0  0  0  0  0  0              0 V3000
M  V30 BEGIN CTAB
M  V30 COUNTS 20 22 0 0 0
M  V30 BEGIN ATOM
M  V30 1 N 4.3301 1.0 0.0 0
M  V30 2 C 4.3301 0.0 0.0 0
M  V30 3 C 5.1961 1.5 0.0 0
M  V30 4 N 3.4641 -0.5 0.0 0
M  V30 5 C 5.1961 -0.4999 0.0 0
M  V30 6 N 6.0621 1.0 0.0 0
M  V30 7 C 2.598 0.0 0.0 0
M  V30 8 N 5.404 -1.4781 0.0 0
M  V30 9 C 6.0621 0.0 0.0 0
M  V30 10 C 1.732 -0.5 0.0 0
M  V30 11 C 6.3985 -1.5826 0.0 0
M  V30 12 C 6.8053 -0.6691 0.0 0
M  V30 13 N 0.866 0.0 0.0 0
M  V30 14 C 6.9863 -2.3916 0.0 0
M  V30 15 C 7.7998 -0.5646 0.0 0
M  V30 16 C 0.866 1.0 0.0 0
M  V30 17 C 0.0 -0.5 0.0 0
M  V30 18 C 7.9808 -2.2871 0.0 0
M  V30 19 C 8.3876 -1.3736 0.0 0
M  V30 20 C 9.3821 -1.269 0.0 0
M  V30 END ATOM
M  V30 BEGIN BOND
M  V30 1 2 1 2
M  V30 2 1 1 3
M  V30 3 1 2 4
M  V30 4 1 2 5
M  V30 5 2 3 6
M  V30 6 1 4 7
M  V30 7 1 5 8
M  V30 8 2 5 9
M  V30 9 1 7 10
M  V30 10 1 8 11
M  V30 11 1 9 12
M  V30 12 1 10 13
M  V30 13 1 11 14
M  V30 14 1 12 15
M  V30 15 1 13 16
M  V30 16 1 13 17
M  V30 17 2 14 18
M  V30 18 2 15 19
M  V30 19 1 19 20
M  V30 20 1 6 9
M  V30 21 2 11 12
M  V30 22 1 18 19
M  V30 END BOND
M  V30 END CTAB
M  END
>  <Rack>
PathogenBox_PlateB

>  <Position>
A05

>  <Compound ID>
MMV006372

>  <Disease Set>
MALARIA

>  <Trivial Name>


>  <Total Molecular Weight>
269.35

>  <Molecular Weight Parent Molecule>
269.35

>  <Molecular Formula>
C15H19N5

>  <Salt Name>


>  <Salt Coefficient>


>  <cLogP>
1.62

>  <SMILES>
CN(C)CCNc1ncnc2c3cc(C)ccc3[nH]c12

$$$$
Compound 85
Actelion Java MolfileCreator 2.0

  0  0  0  0  0  0              0 V3000
M  V30 BEGIN CTAB
M  V30 COUNTS 31 35 0 0 0
M  V30 BEGIN ATOM
M  V30 1 O 2.598 -0.75 0.0 0
M  V30 2 C 3.8971 0.0 0.0 0
M  V30 3 C 1.299 0.0 0.0 0
M  V30 4 C 5.1961 -0.7499 0.0 0
M  V30 5 C 3.8971 1.4999 0.0 0
M  V30 6 C 0.0 -0.75 0.0 0
M  V30 7 C 6.4951 0.0 0.0 0
M  V30 8 C 5.1961 2.25 0.0 0
M  V30 9 C 6.4951 1.5 0.0 0
M  V30 10 C 7.7942 -0.7499 0.0 0
M  V30 11 C 7.7942 2.25 0.0 0
M  V30 12 C 9.0932 0.0 0.0 0
M  V30 13 C 9.0932 1.5 0.0 0
M  V30 14 C 10.3923 2.25 0.0 0
M  V30 15 N 11.7626 1.6398 0.0 0
M  V30 16 C 10.549 3.7417 0.0 0
M  V30 17 N 12.7663 2.7546 0.0 0
M  V30 18 C 9.5454 4.8565 0.0 0
M  V30 19 C 12.0163 4.0536 0.0 0
M  V30 20 C 14.2581 2.5978 0.0 0
M  V30 21 N 10.0089 6.283 0.0 0
M  V30 22 N 8.0781 4.5446 0.0 0
M  V30 23 N 12.4798 5.4802 0.0 0
M  V30 24 C 15.1397 3.8113 0.0 0
M  V30 25 C 11.4761 6.5949 0.0 0
M  V30 26 C 16.6315 3.6545 0.0 0
M  V30 27 C 14.5296 5.1816 0.0 0
M  V30 28 C 17.5132 4.868 0.0 0
M  V30 29 C 15.4113 6.3951 0.0 0
M  V30 30 N 16.9031 6.2383 0.0 0
M  V30 31 C 17.7848 7.4519 0.0 0
M  V30 END ATOM
M  V30 BEGIN BOND
M  V30 1 1 1 2
M  V30 2 1 1 3
M  V30 3 2 2 4
M  V30 4 1 2 5
M  V30 5 1 3 6
M  V30 6 1 4 7
M  V30 7 2 5 8
M  V30 8 1 7 9
M  V30 9 2 7 10
M  V30 10 2 9 11
M  V30 11 1 10 12
M  V30 12 1 11 13
M  V30 13 1 13 14
M  V30 14 2 14 15
M  V30 15 1 14 16
M  V30 16 1 15 17
M  V30 17 2 16 18
M  V30 18 1 16 19
M  V30 19 1 17 20
M  V30 20 1 18 21
M  V30 21 1 18 22
M  V30 22 2 19 23
M  V30 23 1 20 24
M  V30 24 2 21 25
M  V30 25 1 24 26
M  V30 26 1 24 27
M  V30 27 1 26 28
M  V30 28 1 27 29
M  V30 29 1 28 30
M  V30 30 1 30 31
M  V30 31 1 8 9
M  V30 32 2 12 13
M  V30 33 1 17 19
M  V30 34 1 23 25
M  V30 35 1 29 30
M  V30 END BOND
M  V30 END CTAB
M  END
>  <Rack>
PathogenBox_PlateB

>  <Position>
A06

>  <Compound ID>
MMV688854

>  <Disease Set>
CRYPTOSPORIDIOSIS

>  <Trivial Name>


>  <Total Molecular Weight>
452.98

>  <Molecular Weight Parent Molecule>
416.52

>  <Molecular Formula>
C24H28N6O

>  <Salt Name>
Hydrochloride

>  <Salt Coefficient>
1

>  <cLogP>
3.26

>  <SMILES>
CCOc1ccc2cc(ccc2c1)c3nn(CC4CCN(C)CC4)c5ncnc(N)c35

$$$$
Compound 86
Actelion Java MolfileCreator 2.0

  0  0  0  0  0  0              0 V3000
M  V30 BEGIN CTAB
M  V30 COUNTS 28 31 0 0 0
M  V30 BEGIN ATOM
M  V30 1 O 2.9763 -2.054 0.0 0
M  V30 2 C 3.7195 -1.3848 0.0 0
M  V30 3 N 4.6705 -1.6939 0.0 0
M  V30 4 C 3.5116 -0.4067 0.0 0
M  V30 5 C 5.4137 -1.0247 0.0 0
M  V30 6 N 4.1807 0.3364 0.0 0
M  V30 7 C 2.598 0.0 0.0 0
M  V30 8 C 6.3647 -1.3337 0.0 0
M  V30 9 C 5.2058 -0.0466 0.0 0
M  V30 10 C 3.6807 1.2024 0.0 0
M  V30 11 N 2.7026 0.9945 0.0 0
M  V30 12 C 1.732 -0.5 0.0 0
M  V30 13 C 7.1079 -0.6646 0.0 0
M  V30 14 C 6.5727 -2.3119 0.0 0
M  V30 15 C 5.9489 0.6225 0.0 0
M  V30 16 O 1.732 -1.5 0.0 0
M  V30 17 N 0.866 0.0 0.0 0
M  V30 18 C 6.9 0.3134 0.0 0
M  V30 19 C 0.0 -0.5 0.0 0
M  V30 20 C 7.6431 0.9826 0.0 0
M  V30 21 N -0.9135 -0.0932 0.0 0
M  V30 22 N -0.1045 -1.4945 0.0 0
M  V30 23 C -1.5826 -0.8364 0.0 0
M  V30 24 C -1.0826 -1.7024 0.0 0
M  V30 25 C -2.5826 -0.8364 0.0 0
M  V30 26 C -1.5826 -2.5684 0.0 0
M  V30 27 C -3.0826 -1.7024 0.0 0
M  V30 28 C -2.5826 -2.5684 0.0 0
M  V30 END ATOM
M  V30 BEGIN BOND
M  V30 1 2 1 2
M  V30 2 1 2 3
M  V30 3 1 2 4
M  V30 4 1 3 5
M  V30 5 1 4 6
M  V30 6 2 4 7
M  V30 7 2 5 8
M  V30 8 1 5 9
M  V30 9 2 6 10
M  V30 10 1 7 11
M  V30 11 1 7 12
M  V30 12 1 8 13
M  V30 13 1 8 14
M  V30 14 2 9 15
M  V30 15 2 12 16
M  V30 16 1 12 17
M  V30 17 2 13 18
M  V30 18 1 17 19
M  V30 19 1 18 20
M  V30 20 2 19 21
M  V30 21 1 19 22
M  V30 22 1 21 23
M  V30 23 1 22 24
M  V30 24 1 23 25
M  V30 25 1 24 26
M  V30 26 2 25 27
M  V30 27 2 26 28
M  V30 28 1 10 11
M  V30 29 1 15 18
M  V30 30 2 23 24
M  V30 31 1 27 28
M  V30 END BOND
M  V30 END CTAB
M  END
>  <Rack>
PathogenBox_PlateB

>  <Position>
A07

>  <Compound ID>
MMV011903

>  <Disease Set>
MALARIA

>  <Trivial Name>


>  <Total Molecular Weight>
374.40

>  <Molecular Weight Parent Molecule>
374.40

>  <Molecular Formula>
C20H18N6O2

>  <Salt Name>


>  <Salt Coefficient>


>  <cLogP>
2.88

>  <SMILES>
Cc1ccc(NC(=O)c2nc[nH]c2C(=O)Nc3nc4ccccc4[nH]3)c(C)c1

$$$$
Compound 87
Actelion Java MolfileCreator 2.0

  0  0  0  0  0  0              0 V3000
M  V30 BEGIN CTAB
M  V30 COUNTS 29 31 0 0 0
M  V30 BEGIN ATOM
M  V30 1 O 4.3301 0.9999 0.0 0
M  V30 2 C 4.3301 0.0 0.0 0
M  V30 3 N 5.1961 -0.5 0.0 0
M  V30 4 C 3.4641 -0.5 0.0 0 CFG=1
M  V30 5 C 6.0621 0.0 0.0 0
M  V30 6 N 2.598 0.0 0.0 0
M  V30 7 C 3.4641 -1.5 0.0 0
M  V30 8 C 6.9282 -0.5 0.0 0
M  V30 9 C 6.0621 0.9999 0.0 0
M  V30 10 C 1.732 -0.5 0.0 0
M  V30 11 C 2.598 -1.9999 0.0 0
M  V30 12 C 4.3301 -2.0 0.0 0
M  V30 13 C 7.7942 0.0 0.0 0
M  V30 14 C 6.9282 1.4999 0.0 0
M  V30 15 O 1.732 -1.5 0.0 0
M  V30 16 C 0.866 0.0 0.0 0
M  V30 17 C 8.6602 -0.5 0.0 0
M  V30 18 C 7.7942 0.9999 0.0 0
M  V30 19 C 0.0 -0.5 0.0 0
M  V30 20 N 9.5262 -1.0 0.0 0
M  V30 21 C -0.866 0.0 0.0 0
M  V30 22 C 0.0 -1.4999 0.0 0
M  V30 23 C -1.732 -0.4999 0.0 0
M  V30 24 C -0.866 1.0 0.0 0
M  V30 25 C -0.866 -1.9999 0.0 0
M  V30 26 C -1.732 -1.4999 0.0 0
M  V30 27 C -2.598 0.0 0.0 0
M  V30 28 C -1.732 1.5 0.0 0
M  V30 29 C -2.598 1.0 0.0 0
M  V30 END ATOM
M  V30 BEGIN BOND
M  V30 1 2 1 2
M  V30 2 1 2 3
M  V30 3 1 4 2
M  V30 4 1 3 5
M  V30 5 1 4 6 CFG=3
M  V30 6 1 4 7
M  V30 7 2 5 8
M  V30 8 1 5 9
M  V30 9 1 6 10
M  V30 10 1 7 11
M  V30 11 1 7 12
M  V30 12 1 8 13
M  V30 13 2 9 14
M  V30 14 2 10 15
M  V30 15 1 10 16
M  V30 16 1 13 17
M  V30 17 2 13 18
M  V30 18 1 16 19
M  V30 19 3 17 20
M  V30 20 1 19 21
M  V30 21 2 19 22
M  V30 22 1 21 23
M  V30 23 2 21 24
M  V30 24 1 22 25
M  V30 25 1 23 26
M  V30 26 2 23 27
M  V30 27 1 24 28
M  V30 28 1 27 29
M  V30 29 1 14 18
M  V30 30 2 25 26
M  V30 31 2 28 29
M  V30 END BOND
M  V30 BEGIN COLLECTION
M  V30 MDLV30/STERAC1 ATOMS=(1 4)
M  V30 END COLLECTION
M  V30 END CTAB
M  END
>  <Rack>
PathogenBox_PlateB

>  <Position>
A08

>  <Compound ID>
MMV020591

>  <Disease Set>
MALARIA

>  <Trivial Name>


>  <Total Molecular Weight>
385.47

>  <Molecular Weight Parent Molecule>
385.47

>  <Molecular Formula>
C24H23N3O2

>  <Salt Name>


>  <Salt Coefficient>


>  <cLogP>
3.95

>  <SMILES>
CC(C)C(NC(=O)Cc1cccc2ccccc12)C(=O)Nc3cccc(c3)C#N

$$$$
Compound 88
Actelion Java MolfileCreator 2.0

  0  0  0  0  0  0              0 V3000
M  V30 BEGIN CTAB
M  V30 COUNTS 31 35 0 0 0
M  V30 BEGIN ATOM
M  V30 1 O 1.732 -0.5 0.0 0
M  V30 2 C 0.866 0.0 0.0 0
M  V30 3 N 0.866 1.0 0.0 0
M  V30 4 C 0.0 -0.5 0.0 0
M  V30 5 C 1.732 1.4999 0.0 0
M  V30 6 C 0.0 1.4999 0.0 0
M  V30 7 C -0.9135 -0.0932 0.0 0
M  V30 8 C -0.1045 -1.4945 0.0 0
M  V30 9 C 1.732 2.5 0.0 0 CFG=1
M  V30 10 C 0.0 2.5 0.0 0
M  V30 11 O -1.5826 -0.8364 0.0 0
M  V30 12 C -1.1214 0.8848 0.0 0
M  V30 13 N -1.0826 -1.7024 0.0 0
M  V30 14 C 0.6386 -2.1636 0.0 0
M  V30 15 C 2.598 3.0 0.0 0
M  V30 16 C 0.866 3.0 0.0 0
M  V30 17 N 3.5116 2.5932 0.0 0
M  V30 18 C 2.7026 3.9945 0.0 0
M  V30 19 C 4.1807 3.3364 0.0 0
M  V30 20 C 1.9594 4.6636 0.0 0
M  V30 21 C 3.6807 4.2024 0.0 0
M  V30 22 C 5.1807 3.3364 0.0 0
M  V30 23 C 2.1673 5.6418 0.0 0
M  V30 24 C 1.0084 4.3546 0.0 0
M  V30 25 C 4.1807 5.0684 0.0 0
M  V30 26 C 5.6807 4.2024 0.0 0
M  V30 27 C 5.6807 2.4703 0.0 0
M  V30 28 C 1.4242 6.3109 0.0 0
M  V30 29 C 0.2652 5.0237 0.0 0
M  V30 30 C 5.1807 5.0684 0.0 0
M  V30 31 N 0.4731 6.0019 0.0 0
M  V30 END ATOM
M  V30 BEGIN BOND
M  V30 1 2 1 2
M  V30 2 1 2 3
M  V30 3 1 2 4
M  V30 4 1 3 5
M  V30 5 1 3 6
M  V30 6 2 4 7
M  V30 7 1 4 8
M  V30 8 1 9 5
M  V30 9 1 6 10
M  V30 10 1 7 11
M  V30 11 1 7 12
M  V30 12 2 8 13
M  V30 13 1 8 14
M  V30 14 1 9 15 CFG=3
M  V30 15 1 9 16
M  V30 16 1 15 17
M  V30 17 2 15 18
M  V30 18 1 17 19
M  V30 19 1 18 20
M  V30 20 1 18 21
M  V30 21 1 19 22
M  V30 22 2 20 23
M  V30 23 1 20 24
M  V30 24 1 21 25
M  V30 25 2 22 26
M  V30 26 1 22 27
M  V30 27 1 23 28
M  V30 28 2 24 29
M  V30 29 2 25 30
M  V30 30 2 28 31
M  V30 31 1 10 16
M  V30 32 1 11 13
M  V30 33 2 19 21
M  V30 34 1 26 30
M  V30 35 1 29 31
M  V30 END BOND
M  V30 BEGIN COLLECTION
M  V30 MDLV30/STERAC1 ATOMS=(1 9)
M  V30 END COLLECTION
M  V30 END CTAB
M  END
>  <Rack>
PathogenBox_PlateB

>  <Position>
A09

>  <Compound ID>
MMV020623

>  <Disease Set>
MALARIA

>  <Trivial Name>


>  <Total Molecular Weight>
414.51

>  <Molecular Weight Parent Molecule>
414.51

>  <Molecular Formula>
C25H26N4O2

>  <Salt Name>


>  <Salt Coefficient>


>  <cLogP>
4.54

>  <SMILES>
Cc1onc(C)c1C(=O)N2CCCC(C2)c3[nH]c4c(C)cccc4c3c5ccncc5

$$$$
Compound 89
Actelion Java MolfileCreator 2.0

  0  0  0  0  0  0              0 V3000
M  V30 BEGIN CTAB
M  V30 COUNTS 31 34 0 0 0
M  V30 BEGIN ATOM
M  V30 1 O 3.436 -1.7787 0.0 0
M  V30 2 C 4.3871 -2.0877 0.0 0
M  V30 3 N 5.1961 -1.5 0.0 0
M  V30 4 C 4.6961 -3.0388 0.0 0
M  V30 5 C 5.1961 -0.5 0.0 0
M  V30 6 C 6.0051 -2.0877 0.0 0
M  V30 7 C 5.6961 -3.0388 0.0 0
M  V30 8 C 4.3301 0.0 0.0 0
M  V30 9 C 6.0621 0.0 0.0 0
M  V30 10 N 3.4641 -0.5 0.0 0
M  V30 11 C 4.3301 0.9999 0.0 0
M  V30 12 C 6.0621 0.9999 0.0 0
M  V30 13 C 2.598 0.0 0.0 0
M  V30 14 C 5.1961 1.4999 0.0 0
M  V30 15 C 1.732 -0.5 0.0 0
M  V30 16 O 1.732 -1.5 0.0 0
M  V30 17 N 0.866 0.0 0.0 0
M  V30 18 C 0.0 -0.5 0.0 0
M  V30 19 C -0.866 0.0 0.0 0
M  V30 20 C 0.0 -1.4999 0.0 0
M  V30 21 C -1.732 -0.4999 0.0 0
M  V30 22 C -0.866 -1.9999 0.0 0
M  V30 23 C -1.732 -1.4999 0.0 0
M  V30 24 O -2.598 -1.9999 0.0 0
M  V30 25 C -2.598 -2.9999 0.0 0
M  V30 26 C -3.4641 -3.4999 0.0 0
M  V30 27 C -1.732 -3.4999 0.0 0
M  V30 28 C -3.4641 -4.4999 0.0 0
M  V30 29 C -1.732 -4.4999 0.0 0
M  V30 30 C -2.598 -4.9999 0.0 0
M  V30 31 C -2.598 -5.9999 0.0 0
M  V30 END ATOM
M  V30 BEGIN BOND
M  V30 1 2 1 2
M  V30 2 1 2 3
M  V30 3 1 2 4
M  V30 4 1 3 5
M  V30 5 1 3 6
M  V30 6 1 4 7
M  V30 7 2 5 8
M  V30 8 1 5 9
M  V30 9 1 8 10
M  V30 10 1 8 11
M  V30 11 2 9 12
M  V30 12 1 10 13
M  V30 13 2 11 14
M  V30 14 1 13 15
M  V30 15 2 15 16
M  V30 16 1 15 17
M  V30 17 1 17 18
M  V30 18 2 18 19
M  V30 19 1 18 20
M  V30 20 1 19 21
M  V30 21 2 20 22
M  V30 22 2 21 23
M  V30 23 1 23 24
M  V30 24 1 24 25
M  V30 25 2 25 26
M  V30 26 1 25 27
M  V30 27 1 26 28
M  V30 28 2 27 29
M  V30 29 2 28 30
M  V30 30 1 30 31
M  V30 31 1 6 7
M  V30 32 1 12 14
M  V30 33 1 22 23
M  V30 34 1 29 30
M  V30 END BOND
M  V30 END CTAB
M  END
>  <Rack>
PathogenBox_PlateB

>  <Position>
A10

>  <Compound ID>
MMV020512

>  <Disease Set>
MALARIA

>  <Trivial Name>


>  <Total Molecular Weight>
415.49

>  <Molecular Weight Parent Molecule>
415.49

>  <Molecular Formula>
C25H25N3O3

>  <Salt Name>


>  <Salt Coefficient>


>  <cLogP>
3.76

>  <SMILES>
Cc1ccc(Oc2ccc(NC(=O)CNc3ccccc3N4CCCC4=O)cc2)cc1

$$$$
Compound 90
Actelion Java MolfileCreator 2.0

  0  0  0  0  0  0              0 V3000
M  V30 BEGIN CTAB
M  V30 COUNTS 31 34 0 0 0
M  V30 BEGIN ATOM
M  V30 1 S 6.0621 -1.9999 0.0 0
M  V30 2 O 5.5621 -2.866 0.0 0
M  V30 3 O 6.5621 -1.1339 0.0 0
M  V30 4 C 5.1961 -1.4999 0.0 0
M  V30 5 C 6.9282 -2.5 0.0 0
M  V30 6 C 5.1961 -0.5 0.0 0
M  V30 7 C 4.3301 -1.9999 0.0 0
M  V30 8 N 6.0621 0.0 0.0 0 CHG=1
M  V30 9 C 4.3301 0.0 0.0 0
M  V30 10 C 3.4641 -1.5 0.0 0
M  V30 11 O 6.9282 -0.5 0.0 0
M  V30 12 O 6.0621 0.9999 0.0 0 CHG=-1
M  V30 13 C 3.4641 -0.5 0.0 0
M  V30 14 C 2.598 0.0 0.0 0
M  V30 15 O 2.598 1.0 0.0 0
M  V30 16 N 1.732 -0.5 0.0 0
M  V30 17 C 1.732 -1.5 0.0 0
M  V30 18 C 0.866 0.0 0.0 0
M  V30 19 S 0.923 -2.0877 0.0 0
M  V30 20 N 2.541 -2.0877 0.0 0
M  V30 21 C 0.0 -0.5 0.0 0 CFG=2
M  V30 22 C 1.232 -3.0388 0.0 0
M  V30 23 C 2.232 -3.0388 0.0 0
M  V30 24 O -0.9135 -0.0932 0.0 0
M  V30 25 C -0.1045 -1.4945 0.0 0
M  V30 26 C 0.732 -3.9048 0.0 0
M  V30 27 C 2.732 -3.9048 0.0 0
M  V30 28 C -1.5826 -0.8364 0.0 0
M  V30 29 C -1.0826 -1.7024 0.0 0
M  V30 30 C 1.232 -4.7708 0.0 0
M  V30 31 C 2.232 -4.7708 0.0 0
M  V30 END ATOM
M  V30 BEGIN BOND
M  V30 1 2 1 2
M  V30 2 2 1 3
M  V30 3 1 1 4
M  V30 4 1 1 5
M  V30 5 2 4 6
M  V30 6 1 4 7
M  V30 7 1 6 8
M  V30 8 1 6 9
M  V30 9 2 7 10
M  V30 10 2 8 11
M  V30 11 1 8 12
M  V30 12 2 9 13
M  V30 13 1 13 14
M  V30 14 2 14 15
M  V30 15 1 14 16
M  V30 16 1 16 17
M  V30 17 1 16 18
M  V30 18 1 17 19
M  V30 19 2 17 20
M  V30 20 1 21 18 CFG=1
M  V30 21 1 19 22
M  V30 22 1 20 23
M  V30 23 1 21 24
M  V30 24 1 21 25
M  V30 25 1 22 26
M  V30 26 1 23 27
M  V30 27 1 24 28
M  V30 28 1 25 29
M  V30 29 2 26 30
M  V30 30 2 27 31
M  V30 31 1 10 13
M  V30 32 2 22 23
M  V30 33 1 28 29
M  V30 34 1 30 31
M  V30 END BOND
M  V30 BEGIN COLLECTION
M  V30 MDLV30/STERAC1 ATOMS=(1 21)
M  V30 END COLLECTION
M  V30 END CTAB
M  END
>  <Rack>
PathogenBox_PlateB

>  <Position>
A11

>  <Compound ID>
MMV688761

>  <Disease Set>
SCHISTOSOMIASIS

>  <Trivial Name>


>  <Total Molecular Weight>
461.51

>  <Molecular Weight Parent Molecule>
461.51

>  <Molecular Formula>
C20H19N3O6S2

>  <Salt Name>


>  <Salt Coefficient>


>  <cLogP>
2.24

>  <SMILES>
CS(=O)(=O)c1ccc(cc1[N+](=O)[O-])C(=O)N(CC2CCCO2)c3nc4ccccc4s3

$$$$
Compound 91
Actelion Java MolfileCreator 2.0

  0  0  0  0  0  0              0 V3000
M  V30 BEGIN CTAB
M  V30 COUNTS 21 23 0 0 0
M  V30 BEGIN ATOM
M  V30 1 Cl 9.0932 -3.0 0.0 0
M  V30 2 C 7.7942 -2.2499 0.0 0
M  V30 3 C 7.7942 -0.75 0.0 0
M  V30 4 C 6.4951 -2.9999 0.0 0
M  V30 5 C 6.4951 0.0 0.0 0
M  V30 6 C 5.1961 -2.25 0.0 0
M  V30 7 C 5.1961 -0.75 0.0 0
M  V30 8 C 3.8971 0.0 0.0 0
M  V30 9 N 2.598 -0.75 0.0 0
M  V30 10 C 1.299 0.0 0.0 0
M  V30 11 O 1.299 1.5 0.0 0
M  V30 12 C 0.0 -0.75 0.0 0
M  V30 13 N -1.3703 -0.1398 0.0 0
M  V30 14 C -0.1567 -2.2417 0.0 0
M  V30 15 C -2.374 -1.2546 0.0 0
M  V30 16 C -1.8338 1.2866 0.0 0
M  V30 17 N -1.624 -2.5536 0.0 0
M  V30 18 C 0.9579 -3.2454 0.0 0
M  V30 19 C -3.8412 -0.9427 0.0 0
M  V30 20 C -3.301 1.5985 0.0 0
M  V30 21 C -4.3047 0.4838 0.0 0
M  V30 END ATOM
M  V30 BEGIN BOND
M  V30 1 1 1 2
M  V30 2 2 2 3
M  V30 3 1 2 4
M  V30 4 1 3 5
M  V30 5 2 4 6
M  V30 6 2 5 7
M  V30 7 1 7 8
M  V30 8 1 8 9
M  V30 9 1 9 10
M  V30 10 2 10 11
M  V30 11 1 10 12
M  V30 12 1 12 13
M  V30 13 2 12 14
M  V30 14 1 13 15
M  V30 15 1 13 16
M  V30 16 1 14 17
M  V30 17 1 14 18
M  V30 18 1 15 19
M  V30 19 2 16 20
M  V30 20 2 19 21
M  V30 21 1 6 7
M  V30 22 2 15 17
M  V30 23 1 20 21
M  V30 END BOND
M  V30 END CTAB
M  END
>  <Rack>
PathogenBox_PlateB

>  <Position>
B02

>  <Compound ID>
MMV012074

>  <Disease Set>
TUBERCULOSIS

>  <Trivial Name>


>  <Total Molecular Weight>
299.76

>  <Molecular Weight Parent Molecule>
299.76

>  <Molecular Formula>
C16H14N3OCl

>  <Salt Name>


>  <Salt Coefficient>


>  <cLogP>
2.52

>  <SMILES>
Cc1nc2ccccn2c1C(=O)NCc3ccc(Cl)cc3

$$$$
Compound 92
Actelion Java MolfileCreator 2.0

  0  0  0  0  0  0              0 V3000
M  V30 BEGIN CTAB
M  V30 COUNTS 26 28 0 0 0
M  V30 BEGIN ATOM
M  V30 1 S 4.3301 -1.9999 0.0 0
M  V30 2 O 3.8301 -2.866 0.0 0
M  V30 3 O 4.8301 -1.1339 0.0 0
M  V30 4 C 3.4641 -1.4999 0.0 0
M  V30 5 C 5.1961 -2.5 0.0 0
M  V30 6 C 3.4641 -0.5 0.0 0
M  V30 7 C 2.598 -1.9999 0.0 0
M  V30 8 C 2.598 0.0 0.0 0
M  V30 9 C 1.732 -1.5 0.0 0
M  V30 10 C 1.732 -0.5 0.0 0
M  V30 11 N 0.866 0.0 0.0 0
M  V30 12 C 0.0 -0.5 0.0 0
M  V30 13 N -0.866 0.0 0.0 0
M  V30 14 N 0.0 -1.4999 0.0 0
M  V30 15 C -1.732 -0.4999 0.0 0
M  V30 16 C -0.866 -1.9999 0.0 0
M  V30 17 C -2.598 0.0 0.0 0
M  V30 18 C -1.732 -1.4999 0.0 0
M  V30 19 N -2.7026 0.9945 0.0 0
M  V30 20 C -3.5116 -0.4067 0.0 0
M  V30 21 C -3.6807 1.2024 0.0 0
M  V30 22 C -1.9594 1.6636 0.0 0
M  V30 23 N -4.1807 0.3364 0.0 0
M  V30 24 C -4.0874 2.1159 0.0 0
M  V30 25 C -1.0084 1.3546 0.0 0
M  V30 26 C -2.1673 2.6418 0.0 0
M  V30 END ATOM
M  V30 BEGIN BOND
M  V30 1 2 1 2
M  V30 2 2 1 3
M  V30 3 1 1 4
M  V30 4 1 1 5
M  V30 5 2 4 6
M  V30 6 1 4 7
M  V30 7 1 6 8
M  V30 8 2 7 9
M  V30 9 2 8 10
M  V30 10 1 10 11
M  V30 11 1 11 12
M  V30 12 2 12 13
M  V30 13 1 12 14
M  V30 14 1 13 15
M  V30 15 2 14 16
M  V30 16 1 15 17
M  V30 17 2 15 18
M  V30 18 1 17 19
M  V30 19 2 17 20
M  V30 20 1 19 21
M  V30 21 1 19 22
M  V30 22 1 20 23
M  V30 23 1 21 24
M  V30 24 1 22 25
M  V30 25 1 22 26
M  V30 26 1 9 10
M  V30 27 1 16 18
M  V30 28 2 21 23
M  V30 END BOND
M  V30 END CTAB
M  END
>  <Rack>
PathogenBox_PlateB

>  <Position>
B03

>  <Compound ID>
MMV676604

>  <Disease Set>
KINETOPLASTIDS

>  <Trivial Name>


>  <Total Molecular Weight>
371.46

>  <Molecular Weight Parent Molecule>
371.46

>  <Molecular Formula>
C18H21N5O2S

>  <Salt Name>


>  <Salt Coefficient>


>  <cLogP>
2.11

>  <SMILES>
CC(C)n1c(C)ncc1c2ccnc(Nc3ccc(cc3)S(=O)(=O)C)n2

$$$$
Compound 93
Actelion Java MolfileCreator 2.0

  0  0  0  0  0  0              0 V3000
M  V30 BEGIN CTAB
M  V30 COUNTS 23 26 0 0 0
M  V30 BEGIN ATOM
M  V30 1 O 2.598 -3.0 0.0 0
M  V30 2 C 2.598 -1.9999 0.0 0
M  V30 3 N 3.4641 -1.5 0.0 0
M  V30 4 C 1.732 -1.5 0.0 0
M  V30 5 C 3.4641 -0.5 0.0 0 CFG=2
M  V30 6 C 4.3301 -2.0 0.0 0
M  V30 7 N 1.732 -0.5 0.0 0
M  V30 8 C 4.3301 0.0 0.0 0
M  V30 9 C 2.598 0.0 0.0 0
M  V30 10 C 5.1961 -1.5 0.0 0
M  V30 11 C 0.866 0.0 0.0 0
M  V30 12 C 5.1961 -0.5 0.0 0
M  V30 13 C 4.3301 0.9999 0.0 0
M  V30 14 O 0.866 1.0 0.0 0
M  V30 15 C 0.0 -0.5 0.0 0
M  V30 16 C 6.0621 0.0 0.0 0
M  V30 17 C 5.1961 1.4999 0.0 0
M  V30 18 C -0.866 0.0 0.0 0
M  V30 19 C 0.0 -1.4999 0.0 0
M  V30 20 C 6.0621 0.9999 0.0 0
M  V30 21 C -1.732 -0.4999 0.0 0
M  V30 22 C -0.866 -1.9999 0.0 0
M  V30 23 C -1.732 -1.4999 0.0 0
M  V30 END ATOM
M  V30 BEGIN BOND
M  V30 1 2 1 2
M  V30 2 1 2 3
M  V30 3 1 2 4
M  V30 4 1 5 3 CFG=1
M  V30 5 1 3 6
M  V30 6 1 4 7
M  V30 7 1 5 8
M  V30 8 1 5 9
M  V30 9 1 6 10
M  V30 10 1 7 11
M  V30 11 2 8 12
M  V30 12 1 8 13
M  V30 13 2 11 14
M  V30 14 1 11 15
M  V30 15 1 12 16
M  V30 16 2 13 17
M  V30 17 1 15 18
M  V30 18 1 15 19
M  V30 19 2 16 20
M  V30 20 1 18 21
M  V30 21 1 19 22
M  V30 22 1 21 23
M  V30 23 1 7 9
M  V30 24 1 10 12
M  V30 25 1 17 20
M  V30 26 1 22 23
M  V30 END BOND
M  V30 BEGIN COLLECTION
M  V30 MDLV30/STERAC1 ATOMS=(1 5)
M  V30 END COLLECTION
M  V30 END CTAB
M  END
>  <Rack>
PathogenBox_PlateB

>  <Position>
B04

>  <Compound ID>
MMV002529

>  <Disease Set>
REFERENCE COMPOUNDS

>  <Trivial Name>
Praziquantel

>  <Total Molecular Weight>
312.41

>  <Molecular Weight Parent Molecule>
312.41

>  <Molecular Formula>
C19H24N2O2

>  <Salt Name>


>  <Salt Coefficient>


>  <cLogP>
2.54

>  <SMILES>
O=C(C1CCCCC1)N2CC3N(CCc4ccccc34)C(=O)C2

$$$$
Compound 94
Actelion Java MolfileCreator 2.0

  0  0  0  0  0  0              0 V3000
M  V30 BEGIN CTAB
M  V30 COUNTS 41 45 0 0 0
M  V30 BEGIN ATOM
M  V30 1 Cl 6.7827 -6.6475 0.0 0
M  V30 2 C 7.3705 -5.8385 0.0 0
M  V30 3 C 8.365 -5.943 0.0 0
M  V30 4 C 6.9534 -4.9381 0.0 0
M  V30 5 F 8.7718 -6.8566 0.0 0
M  V30 6 C 8.9528 -5.134 0.0 0
M  V30 7 C 7.5515 -4.1159 0.0 0
M  V30 8 Cl 9.9473 -5.2385 0.0 0
M  V30 9 C 8.5461 -4.2205 0.0 0
M  V30 10 C 7.1448 -3.2024 0.0 0 CFG=1
M  V30 11 O 7.6448 -2.3364 0.0 0
M  V30 12 C 6.5155 -3.9795 0.0 0
M  V30 13 C 6.1667 -2.9945 0.0 0
M  V30 14 N 6.9757 -1.5932 0.0 0
M  V30 15 F 7.3854 -4.6629 0.0 0
M  V30 16 F 5.8862 -4.7567 0.0 0
M  V30 17 F 5.7383 -3.3502 0.0 0
M  V30 18 C 6.0621 -2.0 0.0 0
M  V30 19 C 5.1961 -1.4999 0.0 0
M  V30 20 C 5.1961 -0.5 0.0 0
M  V30 21 C 4.3301 -1.9999 0.0 0
M  V30 22 C 4.3301 0.0 0.0 0
M  V30 23 C 3.4641 -1.5 0.0 0
M  V30 24 C 3.4641 -0.5 0.0 0
M  V30 25 C 4.3301 1.0 0.0 0
M  V30 26 C 2.598 0.0 0.0 0
M  V30 27 O 2.598 1.0 0.0 0
M  V30 28 N 1.732 -0.5 0.0 0
M  V30 29 C 0.866 0.0 0.0 0
M  V30 30 C 0.0 -0.5 0.0 0
M  V30 31 C 0.0 -1.4999 0.0 0
M  V30 32 C -0.866 0.0 0.0 0
M  V30 33 C -0.866 -1.9999 0.0 0
M  V30 34 C -1.732 -0.4999 0.0 0
M  V30 35 C -1.732 -1.4999 0.0 0
M  V30 36 C -1.0739 -2.9781 0.0 0
M  V30 37 B -2.4751 -2.1691 0.0 0
M  V30 38 O -2.0684 -3.0826 0.0 0
M  V30 39 C -0.866 -3.9562 0.0 0
M  V30 40 C -0.1228 -3.2871 0.0 0
M  V30 41 O -3.4533 -1.9612 0.0 0
M  V30 END ATOM
M  V30 BEGIN BOND
M  V30 1 1 1 2
M  V30 2 2 2 3
M  V30 3 1 2 4
M  V30 4 1 3 5
M  V30 5 1 3 6
M  V30 6 2 4 7
M  V30 7 1 6 8
M  V30 8 2 6 9
M  V30 9 1 10 7 CFG=1
M  V30 10 1 10 11
M  V30 11 1 10 12
M  V30 12 1 10 13
M  V30 13 1 11 14
M  V30 14 1 12 15
M  V30 15 1 12 16
M  V30 16 1 12 17
M  V30 17 1 13 18
M  V30 18 1 18 19
M  V30 19 2 19 20
M  V30 20 1 19 21
M  V30 21 1 20 22
M  V30 22 2 21 23
M  V30 23 2 22 24
M  V30 24 1 22 25
M  V30 25 1 24 26
M  V30 26 2 26 27
M  V30 27 1 26 28
M  V30 28 1 28 29
M  V30 29 1 29 30
M  V30 30 2 30 31
M  V30 31 1 30 32
M  V30 32 1 31 33
M  V30 33 2 32 34
M  V30 34 2 33 35
M  V30 35 1 33 36
M  V30 36 1 35 37
M  V30 37 1 36 38
M  V30 38 1 36 39
M  V30 39 1 36 40
M  V30 40 1 37 41
M  V30 41 1 7 9
M  V30 42 2 14 18
M  V30 43 1 23 24
M  V30 44 1 34 35
M  V30 45 1 37 38
M  V30 END BOND
M  V30 BEGIN COLLECTION
M  V30 MDLV30/STERAC1 ATOMS=(1 10)
M  V30 END COLLECTION
M  V30 END CTAB
M  END
>  <Rack>
PathogenBox_PlateB

>  <Position>
B05

>  <Compound ID>
MMV687776

>  <Disease Set>
LYMPHATIC FILARIASIS

>  <Trivial Name>


>  <Total Molecular Weight>
609.20

>  <Molecular Weight Parent Molecule>
609.20

>  <Molecular Formula>
C28H23N2O4BCl2F4

>  <Salt Name>


>  <Salt Coefficient>


>  <cLogP>
7.71

>  <SMILES>
Cc1cc(ccc1C(=O)NCc2ccc3B(O)OC(C)(C)c3c2)C4=NOC(C4)(c5cc(Cl)c(F)c(Cl)c5)C(F)(F)F

$$$$
Compound 95
Actelion Java MolfileCreator 2.0

  0  0  0  0  0  0              0 V3000
M  V30 BEGIN CTAB
M  V30 COUNTS 33 37 0 0 0
M  V30 BEGIN ATOM
M  V30 1 Cl 0.0 4.4999 0.0 0
M  V30 2 C 0.866 3.9999 0.0 0
M  V30 3 C 0.866 2.9999 0.0 0
M  V30 4 C 1.732 4.4999 0.0 0
M  V30 5 C 1.732 2.5 0.0 0
M  V30 6 C 2.598 3.9999 0.0 0
M  V30 7 C 2.598 2.9999 0.0 0
M  V30 8 N 3.4641 2.5 0.0 0
M  V30 9 C 3.4641 1.5 0.0 0
M  V30 10 C 4.3301 3.0 0.0 0
M  V30 11 C 4.3301 1.0 0.0 0
M  V30 12 C 2.598 1.0 0.0 0
M  V30 13 C 5.1961 2.4999 0.0 0
M  V30 14 C 4.3301 3.9999 0.0 0
M  V30 15 N 5.1961 1.5 0.0 0
M  V30 16 C 4.3301 0.0 0.0 0
M  V30 17 C 2.598 0.0 0.0 0
M  V30 18 C 6.0621 3.0 0.0 0
M  V30 19 C 5.1961 4.5 0.0 0
M  V30 20 C 3.4641 -0.4999 0.0 0
M  V30 21 N 1.732 -0.5 0.0 0
M  V30 22 C 6.0621 4.0 0.0 0
M  V30 23 N 3.4641 -1.4999 0.0 0
M  V30 24 C 0.866 0.0 0.0 0
M  V30 25 C 4.3301 -1.9999 0.0 0
M  V30 26 C 0.866 1.0 0.0 0
M  V30 27 C 0.0 -0.5 0.0 0
M  V30 28 C 4.3301 -2.9999 0.0 0
M  V30 29 C 5.1961 -1.4999 0.0 0
M  V30 30 C 5.1961 -3.4999 0.0 0
M  V30 31 C 6.0621 -1.9999 0.0 0
M  V30 32 C 6.0621 -2.9999 0.0 0
M  V30 33 Cl 6.9282 -3.4999 0.0 0
M  V30 END ATOM
M  V30 BEGIN BOND
M  V30 1 1 1 2
M  V30 2 2 2 3
M  V30 3 1 2 4
M  V30 4 1 3 5
M  V30 5 2 4 6
M  V30 6 2 5 7
M  V30 7 1 7 8
M  V30 8 1 8 9
M  V30 9 1 8 10
M  V30 10 1 9 11
M  V30 11 2 9 12
M  V30 12 2 10 13
M  V30 13 1 10 14
M  V30 14 2 11 15
M  V30 15 1 11 16
M  V30 16 1 12 17
M  V30 17 1 13 18
M  V30 18 2 14 19
M  V30 19 2 16 20
M  V30 20 2 17 21 CFG=2
M  V30 21 2 18 22
M  V30 22 1 20 23
M  V30 23 1 21 24
M  V30 24 1 23 25
M  V30 25 1 24 26
M  V30 26 1 24 27
M  V30 27 2 25 28
M  V30 28 1 25 29
M  V30 29 1 28 30
M  V30 30 2 29 31
M  V30 31 2 30 32
M  V30 32 1 32 33
M  V30 33 1 6 7
M  V30 34 1 13 15
M  V30 35 1 17 20
M  V30 36 1 19 22
M  V30 37 1 31 32
M  V30 END BOND
M  V30 END CTAB
M  END
>  <Rack>
PathogenBox_PlateB

>  <Position>
B06

>  <Compound ID>
MMV687800

>  <Disease Set>
REFERENCE COMPOUNDS

>  <Trivial Name>
Clofazimine

>  <Total Molecular Weight>
473.40

>  <Molecular Weight Parent Molecule>
473.40

>  <Molecular Formula>
C27H22N4Cl2

>  <Salt Name>


>  <Salt Coefficient>


>  <cLogP>
6.28

>  <SMILES>
CC(C)N=C1C=C2N(c3ccc(Cl)cc3)c4ccccc4N=C2C=C1Nc5ccc(Cl)cc5

$$$$
Compound 96
Actelion Java MolfileCreator 2.0

  0  0  0  0  0  0              0 V3000
M  V30 BEGIN CTAB
M  V30 COUNTS 28 30 0 0 0
M  V30 BEGIN ATOM
M  V30 1 O 4.3301 3.0 0.0 0
M  V30 2 C 3.4641 2.5 0.0 0
M  V30 3 N 2.598 3.0 0.0 0
M  V30 4 C 3.4641 1.5 0.0 0
M  V30 5 C 1.732 2.5 0.0 0
M  V30 6 C 2.598 1.0 0.0 0
M  V30 7 C 4.3301 1.0 0.0 0
M  V30 8 C 0.866 3.0 0.0 0
M  V30 9 C 1.732 1.5 0.0 0
M  V30 10 C 2.598 0.0 0.0 0
M  V30 11 C 4.3301 0.0 0.0 0
M  V30 12 N 0.0 2.5 0.0 0
M  V30 13 C 0.866 1.0 0.0 0
M  V30 14 C 1.732 -0.5 0.0 0
M  V30 15 C 3.4641 -0.4999 0.0 0
M  V30 16 C 5.1961 -0.5 0.0 0
M  V30 17 C 0.0 1.5 0.0 0
M  V30 18 O 1.732 -1.5 0.0 0
M  V30 19 N 0.866 0.0 0.0 0
M  V30 20 C 5.6961 0.366 0.0 0
M  V30 21 C 6.0621 -1.0 0.0 0
M  V30 22 C 4.6961 -1.366 0.0 0
M  V30 23 C 0.0 -0.5 0.0 0
M  V30 24 C -0.866 0.0 0.0 0
M  V30 25 C 0.0 -1.4999 0.0 0
M  V30 26 N -1.732 -0.4999 0.0 0
M  V30 27 C -0.866 -1.9999 0.0 0
M  V30 28 C -1.732 -1.4999 0.0 0
M  V30 END ATOM
M  V30 BEGIN BOND
M  V30 1 2 1 2
M  V30 2 1 2 3
M  V30 3 1 2 4
M  V30 4 1 3 5
M  V30 5 2 4 6
M  V30 6 1 4 7
M  V30 7 2 5 8
M  V30 8 1 5 9
M  V30 9 1 6 10
M  V30 10 2 7 11
M  V30 11 1 8 12
M  V30 12 2 9 13
M  V30 13 1 10 14
M  V30 14 2 10 15
M  V30 15 1 11 16
M  V30 16 2 12 17
M  V30 17 2 14 18
M  V30 18 1 14 19
M  V30 19 1 16 20
M  V30 20 1 16 21
M  V30 21 1 16 22
M  V30 22 1 19 23
M  V30 23 2 23 24
M  V30 24 1 23 25
M  V30 25 1 24 26
M  V30 26 2 25 27
M  V30 27 2 26 28
M  V30 28 1 11 15
M  V30 29 1 13 17
M  V30 30 1 27 28
M  V30 END BOND
M  V30 END CTAB
M  END
>  <Rack>
PathogenBox_PlateB

>  <Position>
B07

>  <Compound ID>
MMV020982

>  <Disease Set>
MALARIA

>  <Trivial Name>


>  <Total Molecular Weight>
374.44

>  <Molecular Weight Parent Molecule>
374.44

>  <Molecular Formula>
C22H22N4O2

>  <Salt Name>


>  <Salt Coefficient>


>  <cLogP>
3.53

>  <SMILES>
CC(C)(C)c1cc(cc(c1)C(=O)Nc2cccnc2)C(=O)Nc3cccnc3

$$$$
Compound 97
Actelion Java MolfileCreator 2.0

  0  0  0  0  0  0              0 V3000
M  V30 BEGIN CTAB
M  V30 COUNTS 26 29 0 0 0
M  V30 BEGIN ATOM
M  V30 1 O 2.598 0.0 0.0 0
M  V30 2 C 1.732 -0.5 0.0 0
M  V30 3 N 0.866 0.0 0.0 0
M  V30 4 C 1.732 -1.5 0.0 0
M  V30 5 C 0.0 -0.5 0.0 0
M  V30 6 C 1.232 -2.366 0.0 0
M  V30 7 C 2.232 -2.366 0.0 0
M  V30 8 C -0.866 0.0 0.0 0
M  V30 9 C 0.0 -1.4999 0.0 0
M  V30 10 C 0.366 -2.866 0.0 0
M  V30 11 C -1.732 -0.4999 0.0 0
M  V30 12 C -0.866 -1.9999 0.0 0
M  V30 13 N -1.732 -1.4999 0.0 0
M  V30 14 C -2.598 -1.9999 0.0 0
M  V30 15 C -2.598 -2.9999 0.0 0
M  V30 16 C -3.4641 -2.4999 0.0 0
M  V30 17 C -1.732 -3.4999 0.0 0
M  V30 18 C -3.4641 -3.4999 0.0 0
M  V30 19 C -4.3301 -2.9999 0.0 0
M  V30 20 C -3.4641 -1.4999 0.0 0
M  V30 21 C -1.732 -4.4999 0.0 0
M  V30 22 C -3.4641 -4.4999 0.0 0
M  V30 23 C -5.1961 -2.4999 0.0 0
M  V30 24 C -4.3301 -0.9999 0.0 0
M  V30 25 C -2.598 -4.9999 0.0 0
M  V30 26 C -5.1961 -1.4999 0.0 0
M  V30 END ATOM
M  V30 BEGIN BOND
M  V30 1 2 1 2
M  V30 2 1 2 3
M  V30 3 1 2 4
M  V30 4 1 3 5
M  V30 5 1 4 6
M  V30 6 1 4 7
M  V30 7 1 5 8
M  V30 8 1 5 9
M  V30 9 1 6 10
M  V30 10 1 8 11
M  V30 11 1 9 12
M  V30 12 1 11 13
M  V30 13 1 13 14
M  V30 14 1 14 15
M  V30 15 1 15 16
M  V30 16 1 15 17
M  V30 17 1 15 18
M  V30 18 2 16 19
M  V30 19 1 16 20
M  V30 20 1 17 21
M  V30 21 1 18 22
M  V30 22 1 19 23
M  V30 23 2 20 24
M  V30 24 1 21 25
M  V30 25 2 23 26
M  V30 26 1 6 7
M  V30 27 1 12 13
M  V30 28 1 22 25
M  V30 29 1 24 26
M  V30 END BOND
M  V30 END CTAB
M  END
>  <Rack>
PathogenBox_PlateB

>  <Position>
B08

>  <Compound ID>
MMV020120

>  <Disease Set>
MALARIA

>  <Trivial Name>


>  <Total Molecular Weight>
354.54

>  <Molecular Weight Parent Molecule>
354.54

>  <Molecular Formula>
C23H34N2O

>  <Salt Name>


>  <Salt Coefficient>


>  <cLogP>
3.74

>  <SMILES>
CC1CC1C(=O)NC2CCN(CC3(CCCCC3)c4ccccc4)CC2

$$$$
Compound 98
Actelion Java MolfileCreator 2.0

  0  0  0  0  0  0              0 V3000
M  V30 BEGIN CTAB
M  V30 COUNTS 32 37 0 0 0
M  V30 BEGIN ATOM
M  V30 1 O 4.6361 1.0606 0.0 0
M  V30 2 C 3.1361 1.0606 0.0 0 CFG=1
M  V30 3 C 1.6872 1.4488 0.0 0
M  V30 4 C 2.7479 -0.3882 0.0 0
M  V30 5 C 3.8861 2.3596 0.0 0
M  V30 6 C 1.299 0.0 0.0 0 CFG=2
M  V30 7 C 0.0 -0.75 0.0 0
M  V30 8 N -1.3703 -0.1398 0.0 0
M  V30 9 N -0.1567 -2.2417 0.0 0
M  V30 10 C -2.374 -1.2546 0.0 0
M  V30 11 C -1.624 -2.5536 0.0 0
M  V30 12 C 0.8469 -3.3565 0.0 0
M  V30 13 C -3.8658 -1.0978 0.0 0
M  V30 14 C -2.0875 -3.9802 0.0 0
M  V30 15 C 0.3833 -4.783 0.0 0
M  V30 16 C -4.4759 0.2724 0.0 0
M  V30 17 C -4.7474 -2.3113 0.0 0
M  V30 18 N -1.0838 -5.0949 0.0 0
M  V30 19 N -3.5547 -4.2921 0.0 0
M  V30 20 C -5.9676 0.4292 0.0 0
M  V30 21 C -6.2392 -2.1545 0.0 0
M  V30 22 N -6.5777 1.7996 0.0 0
M  V30 23 C -6.8493 -0.7842 0.0 0
M  V30 24 C -8.0695 1.9564 0.0 0
M  V30 25 C -8.3411 -0.6274 0.0 0
M  V30 26 C -8.6796 3.3267 0.0 0
M  V30 27 C -8.9512 0.7428 0.0 0
M  V30 28 C -7.798 4.5402 0.0 0
M  V30 29 C -10.1714 3.4835 0.0 0
M  V30 30 C -8.4081 5.9105 0.0 0
M  V30 31 C -10.7815 4.8538 0.0 0
M  V30 32 C -9.8998 6.0673 0.0 0
M  V30 END ATOM
M  V30 BEGIN BOND
M  V30 1 1 2 1 CFG=3
M  V30 2 1 2 3
M  V30 3 1 2 4
M  V30 4 1 2 5
M  V30 5 1 6 3
M  V30 6 1 6 7 CFG=3
M  V30 7 2 7 8
M  V30 8 1 7 9
M  V30 9 1 8 10
M  V30 10 1 9 11
M  V30 11 1 9 12
M  V30 12 1 10 13
M  V30 13 1 11 14
M  V30 14 2 12 15
M  V30 15 2 13 16
M  V30 16 1 13 17
M  V30 17 2 14 18
M  V30 18 1 14 19
M  V30 19 1 16 20
M  V30 20 2 17 21
M  V30 21 2 20 22
M  V30 22 1 20 23
M  V30 23 1 22 24
M  V30 24 2 23 25
M  V30 25 1 24 26
M  V30 26 2 24 27
M  V30 27 2 26 28
M  V30 28 1 26 29
M  V30 29 1 28 30
M  V30 30 2 29 31
M  V30 31 2 30 32
M  V30 32 1 4 6
M  V30 33 2 10 11
M  V30 34 1 15 18
M  V30 35 1 21 23
M  V30 36 1 25 27
M  V30 37 1 31 32
M  V30 END BOND
M  V30 BEGIN COLLECTION
M  V30 MDLV30/STEABS ATOMS=(2 2 6)
M  V30 END COLLECTION
M  V30 END CTAB
M  END
>  <Rack>
PathogenBox_PlateB

>  <Position>
B09

>  <Compound ID>
MMV676605

>  <Disease Set>
MALARIA

>  <Trivial Name>


>  <Total Molecular Weight>
421.49

>  <Molecular Weight Parent Molecule>
421.49

>  <Molecular Formula>
C26H23N5O

>  <Salt Name>


>  <Salt Coefficient>


>  <cLogP>
4.04

>  <SMILES>
C[C@@]1(O)C[C@@H](C1)c2nc(c3ccc4ccc(nc4c3)c5ccccc5)c6c(N)nccn26

$$$$
Compound 99
Actelion Java MolfileCreator 2.0

  0  0  0  0  0  0              0 V3000
M  V30 BEGIN CTAB
M  V30 COUNTS 28 30 0 0 0
M  V30 BEGIN ATOM
M  V30 1 S 5.1961 -0.75 0.0 0
M  V30 2 O 4.4461 -2.049 0.0 0
M  V30 3 O 5.9461 -2.049 0.0 0
M  V30 4 C 6.4952 0.0 0.0 0
M  V30 5 C 3.8971 0.0 0.0 0
M  V30 6 C 7.7942 -0.75 0.0 0
M  V30 7 C 6.4952 1.5 0.0 0
M  V30 8 C 2.598 -0.75 0.0 0
M  V30 9 C 9.0932 0.0 0.0 0
M  V30 10 C 7.7942 2.25 0.0 0
M  V30 11 O 2.598 -2.25 0.0 0
M  V30 12 N 1.299 0.0 0.0 0
M  V30 13 C 9.0932 1.5 0.0 0
M  V30 14 C 0.0 -0.75 0.0 0
M  V30 15 S -1.3703 -0.1398 0.0 0
M  V30 16 N -0.1567 -2.2417 0.0 0
M  V30 17 C -2.374 -1.2546 0.0 0
M  V30 18 C -1.624 -2.5536 0.0 0
M  V30 19 C -3.8658 -1.0978 0.0 0
M  V30 20 C -2.2341 -3.9239 0.0 0
M  V30 21 C -3.7259 -4.0807 0.0 0
M  V30 22 C -1.3524 -5.1375 0.0 0
M  V30 23 C -4.336 -5.451 0.0 0
M  V30 24 C -1.9625 -6.5078 0.0 0
M  V30 25 C -3.4543 -6.6646 0.0 0
M  V30 26 O -4.0644 -8.0349 0.0 0
M  V30 27 C -5.5562 -8.1917 0.0 0
M  V30 28 C -6.1663 -9.562 0.0 0
M  V30 END ATOM
M  V30 BEGIN BOND
M  V30 1 2 1 2
M  V30 2 2 1 3
M  V30 3 1 1 4
M  V30 4 1 1 5
M  V30 5 2 4 6
M  V30 6 1 4 7
M  V30 7 1 5 8
M  V30 8 1 6 9
M  V30 9 2 7 10
M  V30 10 2 8 11
M  V30 11 1 8 12
M  V30 12 2 9 13
M  V30 13 1 12 14
M  V30 14 1 14 15
M  V30 15 2 14 16
M  V30 16 1 15 17
M  V30 17 1 16 18
M  V30 18 1 17 19
M  V30 19 1 18 20
M  V30 20 2 20 21
M  V30 21 1 20 22
M  V30 22 1 21 23
M  V30 23 2 22 24
M  V30 24 2 23 25
M  V30 25 1 25 26
M  V30 26 1 26 27
M  V30 27 1 27 28
M  V30 28 1 10 13
M  V30 29 2 17 18
M  V30 30 1 24 25
M  V30 END BOND
M  V30 END CTAB
M  END
>  <Rack>
PathogenBox_PlateB

>  <Position>
B10

>  <Compound ID>
MMV007638

>  <Disease Set>
MALARIA

>  <Trivial Name>


>  <Total Molecular Weight>
416.52

>  <Molecular Weight Parent Molecule>
416.52

>  <Molecular Formula>
C20H20N2O4S2

>  <Salt Name>


>  <Salt Coefficient>


>  <cLogP>
3.68

>  <SMILES>
CCOc1ccc(cc1)c2nc(NC(=O)CS(=O)(=O)c3ccccc3)sc2C

$$$$
Compound 100
Actelion Java MolfileCreator 2.0

  0  0  0  0  0  0              0 V3000
M  V30 BEGIN CTAB
M  V30 COUNTS 30 32 0 0 0
M  V30 BEGIN ATOM
M  V30 1 O 5.1961 -2.25 0.0 0
M  V30 2 C 5.1961 -0.75 0.0 0
M  V30 3 O 6.4951 0.0 0.0 0
M  V30 4 C 3.8971 0.0 0.0 0
M  V30 5 C 7.7942 -0.75 0.0 0
M  V30 6 C 3.8971 1.5 0.0 0
M  V30 7 C 2.598 -0.75 0.0 0
M  V30 8 C 5.1961 2.25 0.0 0
M  V30 9 C 2.598 2.2499 0.0 0
M  V30 10 O 1.299 0.0 0.0 0
M  V30 11 O 6.4951 1.4999 0.0 0
M  V30 12 C 5.1961 3.75 0.0 0
M  V30 13 C 2.598 3.7499 0.0 0
M  V30 14 C 0.0 -0.75 0.0 0
M  V30 15 C 7.7942 2.2499 0.0 0
M  V30 16 C 3.8971 4.5 0.0 0
M  V30 17 N 9.0932 1.4999 0.0 0
M  V30 18 C 7.7942 3.7499 0.0 0
M  V30 19 C 10.3923 2.2499 0.0 0
M  V30 20 C 9.0932 4.4999 0.0 0
M  V30 21 N 10.3923 3.7499 0.0 0
M  V30 22 O 9.0932 5.9999 0.0 0
M  V30 23 C 7.7942 6.7499 0.0 0
M  V30 24 C 7.7942 8.2499 0.0 0
M  V30 25 C 6.4951 6.0 0.0 0
M  V30 26 C 9.0932 8.9999 0.0 0
M  V30 27 C 6.4951 9.0 0.0 0
M  V30 28 C 5.1961 6.75 0.0 0
M  V30 29 N 10.3923 9.7499 0.0 0
M  V30 30 C 5.1961 8.25 0.0 0
M  V30 END ATOM
M  V30 BEGIN BOND
M  V30 1 2 1 2
M  V30 2 1 2 3
M  V30 3 1 2 4
M  V30 4 1 3 5
M  V30 5 1 4 6
M  V30 6 2 4 7
M  V30 7 2 6 8
M  V30 8 1 6 9
M  V30 9 1 7 10
M  V30 10 1 8 11
M  V30 11 1 8 12
M  V30 12 2 9 13
M  V30 13 1 10 14
M  V30 14 1 11 15
M  V30 15 2 12 16
M  V30 16 2 15 17
M  V30 17 1 15 18
M  V30 18 1 17 19
M  V30 19 2 18 20
M  V30 20 2 19 21
M  V30 21 1 20 22
M  V30 22 1 22 23
M  V30 23 2 23 24
M  V30 24 1 23 25
M  V30 25 1 24 26
M  V30 26 1 24 27
M  V30 27 2 25 28
M  V30 28 3 26 29
M  V30 29 2 27 30
M  V30 30 1 13 16
M  V30 31 1 20 21
M  V30 32 1 28 30
M  V30 END BOND
M  V30 END CTAB
M  END
>  <Rack>
PathogenBox_PlateB

>  <Position>
B11

>  <Compound ID>
MMV021057

>  <Disease Set>
MALARIA

>  <Trivial Name>
Azoxystrobin

>  <Total Molecular Weight>
403.39

>  <Molecular Weight Parent Molecule>
403.39

>  <Molecular Formula>
C22H17N3O5

>  <Salt Name>


>  <Salt Coefficient>


>  <cLogP>
2.94

>  <SMILES>
CO\C=C(\C(=O)OC)/c1ccccc1Oc2cc(Oc3ccccc3C#N)ncn2

$$$$
Compound 101
Actelion Java MolfileCreator 2.0

  0  0  0  0  0  0              0 V3000
M  V30 BEGIN CTAB
M  V30 COUNTS 43 48 0 0 0
M  V30 BEGIN ATOM
M  V30 1 O 6.9282 5.4999 0.0 0
M  V30 2 C 6.9282 4.4999 0.0 0
M  V30 3 N 6.0621 4.0 0.0 0
M  V30 4 C 7.7942 3.9999 0.0 0 CFG=1
M  V30 5 N 6.0621 3.0 0.0 0
M  V30 6 C 5.1961 4.5 0.0 0
M  V30 7 C 7.7942 2.9999 0.0 0 CFG=1
M  V30 8 C 8.6602 4.4999 0.0 0
M  V30 9 C 6.9282 2.4999 0.0 0
M  V30 10 C 5.2708 5.4972 0.0 0
M  V30 11 C 4.3699 3.9366 0.0 0
M  V30 12 C 8.6602 2.4999 0.0 0
M  V30 13 C 9.5262 3.9999 0.0 0
M  V30 14 C 6.9282 1.4999 0.0 0
M  V30 15 C 4.5378 6.1773 0.0 0
M  V30 16 C 3.4143 4.2314 0.0 0
M  V30 17 C 9.5262 2.9999 0.0 0
M  V30 18 C 6.0621 0.9999 0.0 0
M  V30 19 C 7.7942 0.9999 0.0 0
M  V30 20 C 3.5489 6.0283 0.0 0
M  V30 21 C 3.0489 5.1623 0.0 0
M  V30 22 C 6.0621 0.0 0.0 0
M  V30 23 C 7.7942 0.0 0.0 0
M  V30 24 O 5.1961 -0.5 0.0 0
M  V30 25 C 6.9282 -0.5 0.0 0
M  V30 26 C 4.3301 0.0 0.0 0
M  V30 27 O 6.9282 -1.5 0.0 0
M  V30 28 C 3.4641 -0.5 0.0 0
M  V30 29 C 7.7942 -2.0 0.0 0
M  V30 30 C 2.598 0.0 0.0 0
M  V30 31 C 1.732 -0.5 0.0 0
M  V30 32 O 0.866 0.0 0.0 0
M  V30 33 C 0.0 -0.5 0.0 0
M  V30 34 C -0.866 0.0 0.0 0
M  V30 35 C 0.0 -1.4999 0.0 0
M  V30 36 C -1.732 -0.4999 0.0 0
M  V30 37 C -0.866 -1.9999 0.0 0
M  V30 38 C -1.732 -1.4999 0.0 0
M  V30 39 C -2.598 -1.9999 0.0 0
M  V30 40 N -3.5116 -1.5932 0.0 0
M  V30 41 N -2.7026 -2.9945 0.0 0
M  V30 42 N -4.1807 -2.3364 0.0 0
M  V30 43 N -3.6807 -3.2024 0.0 0
M  V30 END ATOM
M  V30 BEGIN BOND
M  V30 1 2 1 2
M  V30 2 1 2 3
M  V30 3 1 4 2
M  V30 4 1 3 5
M  V30 5 1 3 6
M  V30 6 1 7 4
M  V30 7 1 4 8 CFG=3
M  V30 8 2 5 9
M  V30 9 1 6 10
M  V30 10 1 6 11
M  V30 11 1 7 12 CFG=3
M  V30 12 1 8 13
M  V30 13 1 9 14
M  V30 14 1 10 15
M  V30 15 1 11 16
M  V30 16 1 12 17
M  V30 17 2 14 18
M  V30 18 1 14 19
M  V30 19 1 15 20
M  V30 20 1 16 21
M  V30 21 1 18 22
M  V30 22 2 19 23
M  V30 23 1 22 24
M  V30 24 2 22 25
M  V30 25 1 24 26
M  V30 26 1 25 27
M  V30 27 1 26 28
M  V30 28 1 27 29
M  V30 29 1 28 30
M  V30 30 1 30 31
M  V30 31 1 31 32
M  V30 32 1 32 33
M  V30 33 2 33 34
M  V30 34 1 33 35
M  V30 35 1 34 36
M  V30 36 2 35 37
M  V30 37 2 36 38
M  V30 38 1 38 39
M  V30 39 1 39 40
M  V30 40 2 39 41
M  V30 41 2 40 42
M  V30 42 1 41 43
M  V30 43 1 7 9
M  V30 44 2 13 17
M  V30 45 1 20 21
M  V30 46 1 23 25
M  V30 47 1 37 38
M  V30 48 1 42 43
M  V30 END BOND
M  V30 BEGIN COLLECTION
M  V30 MDLV30/STEABS ATOMS=(2 4 7)
M  V30 END COLLECTION
M  V30 END CTAB
M  END
>  <Rack>
PathogenBox_PlateB

>  <Position>
C02

>  <Compound ID>
MMV690027

>  <Disease Set>
KINETOPLASTIDS

>  <Trivial Name>


>  <Total Molecular Weight>
584.71

>  <Molecular Weight Parent Molecule>
584.71

>  <Molecular Formula>
C33H40N6O4

>  <Salt Name>


>  <Salt Coefficient>


>  <cLogP>
5.44

>  <SMILES>
COC1=C(OCCCCOC2=CC=C(C3=NNN=N3)C=C2)C=C(C([C@@H]4[C@H]5CC=CC4)=NN(C6CCCCCC6)C5=O)C=C1

$$$$
Compound 102
Actelion Java MolfileCreator 2.0

  0  0  0  0  0  0              0 V3000
M  V30 BEGIN CTAB
M  V30 COUNTS 35 39 0 0 0
M  V30 BEGIN ATOM
M  V30 1 O 8.3148 -7.6065 0.0 0
M  V30 2 C 8.6267 -6.1392 0.0 0
M  V30 3 N 7.5119 -5.1355 0.0 0
M  V30 4 C 10.0532 -5.6757 0.0 0
M  V30 5 C 7.8238 -3.6683 0.0 0
M  V30 6 C 10.3651 -4.2085 0.0 0
M  V30 7 C 11.168 -6.6794 0.0 0
M  V30 8 N 9.1941 -3.0582 0.0 0
M  V30 9 C 6.8201 -2.5536 0.0 0
M  V30 10 C 11.7917 -3.745 0.0 0
M  V30 11 C 12.5945 -6.2159 0.0 0
M  V30 12 N 9.0373 -1.5664 0.0 0
M  V30 13 C 7.5701 -1.2546 0.0 0
M  V30 14 C 5.3529 -2.2417 0.0 0
M  V30 15 C 12.9064 -4.7487 0.0 0
M  V30 16 C 6.5664 -0.1398 0.0 0
M  V30 17 N 5.1961 -0.75 0.0 0
M  V30 18 N 14.333 -4.2851 0.0 0
M  V30 19 C 3.8971 0.0 0.0 0
M  V30 20 C 14.6449 -2.8179 0.0 0
M  V30 21 C 15.4477 -5.2888 0.0 0
M  V30 22 O 2.598 -0.75 0.0 0
M  V30 23 C 3.8971 1.5 0.0 0 CFG=2
M  V30 24 C 16.0715 -2.3544 0.0 0
M  V30 25 C 16.8743 -4.8253 0.0 0
M  V30 26 O 2.598 2.25 0.0 0
M  V30 27 C 5.1961 2.25 0.0 0
M  V30 28 N 17.1862 -3.3581 0.0 0
M  V30 29 C 2.598 3.75 0.0 0
M  V30 30 C 5.1961 3.75 0.0 0
M  V30 31 C 6.4951 1.5 0.0 0
M  V30 32 C 18.6128 -2.8946 0.0 0
M  V30 33 C 6.4951 4.5 0.0 0
M  V30 34 C 7.7942 2.25 0.0 0
M  V30 35 C 7.7942 3.75 0.0 0
M  V30 END ATOM
M  V30 BEGIN BOND
M  V30 1 2 1 2
M  V30 2 1 2 3
M  V30 3 1 2 4
M  V30 4 1 3 5
M  V30 5 2 4 6
M  V30 6 1 4 7
M  V30 7 2 5 8
M  V30 8 1 5 9
M  V30 9 1 6 10
M  V30 10 2 7 11
M  V30 11 1 8 12
M  V30 12 2 9 13
M  V30 13 1 9 14
M  V30 14 2 10 15
M  V30 15 1 13 16
M  V30 16 1 14 17
M  V30 17 1 15 18
M  V30 18 1 17 19
M  V30 19 1 18 20
M  V30 20 1 18 21
M  V30 21 2 19 22
M  V30 22 1 23 19
M  V30 23 1 20 24
M  V30 24 1 21 25
M  V30 25 1 23 26 CFG=3
M  V30 26 1 23 27
M  V30 27 1 24 28
M  V30 28 1 26 29
M  V30 29 2 27 30
M  V30 30 1 27 31
M  V30 31 1 28 32
M  V30 32 1 30 33
M  V30 33 2 31 34
M  V30 34 2 33 35
M  V30 35 1 11 15
M  V30 36 1 12 13
M  V30 37 1 16 17
M  V30 38 1 25 28
M  V30 39 1 34 35
M  V30 END BOND
M  V30 BEGIN COLLECTION
M  V30 MDLV30/STEABS ATOMS=(1 23)
M  V30 END COLLECTION
M  V30 END CTAB
M  END
>  <Rack>
PathogenBox_PlateB

>  <Position>
C03

>  <Compound ID>
MMV676600

>  <Disease Set>
KINETOPLASTIDS

>  <Trivial Name>


>  <Total Molecular Weight>
474.55

>  <Molecular Weight Parent Molecule>
474.55

>  <Molecular Formula>
C26H30N6O3

>  <Salt Name>


>  <Salt Coefficient>


>  <cLogP>
0.73

>  <SMILES>
CO[C@@H](C(=O)N1Cc2[nH]nc(NC(=O)c3ccc(cc3)N4CCN(C)CC4)c2C1)c5ccccc5

$$$$
Compound 103
Actelion Java MolfileCreator 2.0

  0  0  0  0  0  0              0 V3000
M  V30 BEGIN CTAB
M  V30 COUNTS 28 32 0 0 0
M  V30 BEGIN ATOM
M  V30 1 O 7.7942 0.9999 0.0 0
M  V30 2 C 6.9282 1.5 0.0 0
M  V30 3 C 7.7942 0.0 0.0 0
M  V30 4 C 6.0621 1.0 0.0 0
M  V30 5 C 6.9282 -0.4999 0.0 0
M  V30 6 N 6.0621 0.0 0.0 0
M  V30 7 C 5.1961 -0.4999 0.0 0
M  V30 8 N 4.3301 0.0 0.0 0
M  V30 9 C 5.1961 -1.4999 0.0 0
M  V30 10 C 3.4641 -0.5 0.0 0
M  V30 11 C 4.3301 -1.9999 0.0 0
M  V30 12 C 5.9392 -2.1691 0.0 0
M  V30 13 N 3.4641 -1.5 0.0 0
M  V30 14 N 2.598 0.0 0.0 0
M  V30 15 N 4.538 -2.9781 0.0 0
M  V30 16 N 5.5325 -3.0826 0.0 0
M  V30 17 C 1.732 -0.5 0.0 0
M  V30 18 C 3.8689 -3.7212 0.0 0
M  V30 19 C 0.866 0.0 0.0 0
M  V30 20 C 0.0 -0.5 0.0 0
M  V30 21 C -0.9135 -0.0932 0.0 0
M  V30 22 C -0.1045 -1.4945 0.0 0
M  V30 23 C -1.5826 -0.8364 0.0 0
M  V30 24 C -1.2225 0.8577 0.0 0
M  V30 25 N -1.0826 -1.7024 0.0 0
M  V30 26 C -2.5608 -0.6284 0.0 0
M  V30 27 C -2.2007 1.0657 0.0 0
M  V30 28 C -2.8698 0.3225 0.0 0
M  V30 END ATOM
M  V30 BEGIN BOND
M  V30 1 1 1 2
M  V30 2 1 1 3
M  V30 3 1 2 4
M  V30 4 1 3 5
M  V30 5 1 4 6
M  V30 6 1 6 7
M  V30 7 2 7 8
M  V30 8 1 7 9
M  V30 9 1 8 10
M  V30 10 2 9 11
M  V30 11 1 9 12
M  V30 12 2 10 13
M  V30 13 1 10 14
M  V30 14 1 11 15
M  V30 15 2 12 16
M  V30 16 1 14 17
M  V30 17 1 15 18
M  V30 18 1 17 19
M  V30 19 1 19 20
M  V30 20 1 20 21
M  V30 21 2 20 22
M  V30 22 2 21 23
M  V30 23 1 21 24
M  V30 24 1 22 25
M  V30 25 1 23 26
M  V30 26 2 24 27
M  V30 27 2 26 28
M  V30 28 1 5 6
M  V30 29 1 11 13
M  V30 30 1 15 16
M  V30 31 1 23 25
M  V30 32 1 27 28
M  V30 END BOND
M  V30 END CTAB
M  END
>  <Rack>
PathogenBox_PlateB

>  <Position>
C04

>  <Compound ID>
MMV676382

>  <Disease Set>
SCHISTOSOMIASIS

>  <Trivial Name>


>  <Total Molecular Weight>
377.44

>  <Molecular Weight Parent Molecule>
377.44

>  <Molecular Formula>
C20H23N7O

>  <Salt Name>


>  <Salt Coefficient>


>  <cLogP>
1.68

>  <SMILES>
Cn1ncc2c(nc(NCCc3c[nH]c4ccccc34)nc12)N1CCOCC1

$$$$
Compound 104
Actelion Java MolfileCreator 2.0

  0  0  0  0  0  0              0 V3000
M  V30 BEGIN CTAB
M  V30 COUNTS 12 11 0 0 0
M  V30 BEGIN ATOM
M  V30 1 F 7.8893 -0.7591 0.0 0
M  V30 2 C 6.5744 0.0 0.0 0
M  V30 3 F 6.9298 1.385 0.0 0
M  V30 4 C 5.2595 -0.7591 0.0 0 CFG=2
M  V30 5 N 5.2595 -2.2774 0.0 0
M  V30 6 C 5.2595 0.7591 0.0 0
M  V30 7 C 3.9446 0.0 0.0 0
M  V30 8 O 3.9446 1.5183 0.0 0
M  V30 9 O 6.3967 1.5849 0.0 0
M  V30 10 C 2.6297 -0.7591 0.0 0
M  V30 11 C 1.3148 0.0 0.0 0
M  V30 12 N 0.0 -0.7591 0.0 0
M  V30 END ATOM
M  V30 BEGIN BOND
M  V30 1 1 1 2
M  V30 2 1 2 3
M  V30 3 1 4 2
M  V30 4 1 4 5
M  V30 5 1 4 6 CFG=3
M  V30 6 1 4 7
M  V30 7 2 6 8
M  V30 8 1 6 9
M  V30 9 1 7 10
M  V30 10 1 10 11
M  V30 11 1 11 12
M  V30 END BOND
M  V30 BEGIN COLLECTION
M  V30 MDLV30/STERAC1 ATOMS=(1 4)
M  V30 END COLLECTION
M  V30 END CTAB
M  END
>  <Rack>
PathogenBox_PlateB

>  <Position>
C05

>  <Compound ID>
MMV001625

>  <Disease Set>
REFERENCE COMPOUNDS

>  <Trivial Name>
alpha-Difluoromethylornithine

>  <Total Molecular Weight>
236.60

>  <Molecular Weight Parent Molecule>
182.17

>  <Molecular Formula>
C6H12N2O2F2

>  <Salt Name>
Hydrochloride hydrate

>  <Salt Coefficient>
1

>  <cLogP>
-4.99

>  <SMILES>
NCCCC(N)(C(F)F)C(=O)O

$$$$
Compound 105
Actelion Java MolfileCreator 2.0

  0  0  0  0  0  0              0 V3000
M  V30 BEGIN CTAB
M  V30 COUNTS 27 29 0 0 0
M  V30 BEGIN ATOM
M  V30 1 O 5.2307 -0.7549 0.0 0
M  V30 2 C 3.923 0.0 0.0 0
M  V30 3 O 2.6153 -0.7549 0.0 0
M  V30 4 C 3.923 1.5099 0.0 0
M  V30 5 C 2.6153 -2.2649 0.0 0
M  V30 6 C 5.2307 2.2649 0.0 0
M  V30 7 C 2.6153 2.2649 0.0 0 CFG=2
M  V30 8 C 3.923 -3.0199 0.0 0
M  V30 9 C 1.3076 -3.0199 0.0 0
M  V30 10 N 5.2307 3.7749 0.0 0
M  V30 11 C 6.5384 1.5099 0.0 0
M  V30 12 C 2.6153 3.7749 0.0 0
M  V30 13 C 1.3076 1.5099 0.0 0
M  V30 14 C 3.923 4.5299 0.0 0
M  V30 15 C 1.3076 4.5299 0.0 0
M  V30 16 C 0.0 2.2649 0.0 0
M  V30 17 C 1.3076 0.0 0.0 0
M  V30 18 C 3.923 6.0399 0.0 0
M  V30 19 O 0.2184 3.7979 0.0 0
M  V30 20 O 1.3076 6.0399 0.0 0
M  V30 21 N -0.4231 3.7304 0.0 0
M  V30 22 C -1.3076 1.5099 0.0 0
M  V30 23 C 0.0 -0.7549 0.0 0
M  V30 24 C 0.0 6.7949 0.0 0
M  V30 25 O -1.8156 3.8997 0.0 0
M  V30 26 N -2.4298 2.5203 0.0 0
M  V30 27 C -1.3076 0.0 0.0 0
M  V30 END ATOM
M  V30 BEGIN BOND
M  V30 1 2 1 2
M  V30 2 1 2 3
M  V30 3 1 2 4
M  V30 4 1 3 5
M  V30 5 2 4 6
M  V30 6 1 7 4
M  V30 7 1 5 8
M  V30 8 1 5 9
M  V30 9 1 6 10
M  V30 10 1 6 11
M  V30 11 1 7 12
M  V30 12 1 7 13 CFG=1
M  V30 13 1 10 14
M  V30 14 1 12 15
M  V30 15 1 13 16
M  V30 16 2 13 17
M  V30 17 1 14 18
M  V30 18 2 15 19
M  V30 19 1 15 20
M  V30 20 2 16 21
M  V30 21 1 16 22
M  V30 22 1 17 23
M  V30 23 1 20 24
M  V30 24 1 21 25
M  V30 25 2 22 26
M  V30 26 1 22 27
M  V30 27 2 12 14
M  V30 28 2 23 27
M  V30 29 1 25 26
M  V30 END BOND
M  V30 BEGIN COLLECTION
M  V30 MDLV30/STERAC1 ATOMS=(1 7)
M  V30 END COLLECTION
M  V30 END CTAB
M  END
>  <Rack>
PathogenBox_PlateB

>  <Position>
C06

>  <Compound ID>
MMV001493

>  <Disease Set>
ONCHOCERCIASIS

>  <Trivial Name>
Isradipine

>  <Total Molecular Weight>
371.39

>  <Molecular Weight Parent Molecule>
371.39

>  <Molecular Formula>
C19H21N3O5

>  <Salt Name>


>  <Salt Coefficient>


>  <cLogP>
3.19

>  <SMILES>
COC(=O)C1=C(C)NC(=C(C1c2cccc3nonc23)C(=O)OC(C)C)C

$$$$
Compound 106
Actelion Java MolfileCreator 2.0

  0  0  0  0  0  0              0 V3000
M  V30 BEGIN CTAB
M  V30 COUNTS 24 26 0 0 0
M  V30 BEGIN ATOM
M  V30 1 S 7.7629 0.3478 0.0 0
M  V30 2 O 9.1332 0.9578 0.0 0
M  V30 3 O 7.9196 1.8395 0.0 0
M  V30 4 N 8.373 -1.0225 0.0 0
M  V30 5 C 6.2711 0.5046 0.0 0
M  V30 6 C 7.4913 -2.236 0.0 0
M  V30 7 C 9.8648 -1.1792 0.0 0
M  V30 8 C 5.5211 1.8036 0.0 0
M  V30 9 C 5.2674 -0.6101 0.0 0
M  V30 10 C 8.1014 -3.6063 0.0 0
M  V30 11 C 10.4749 -2.5496 0.0 0
M  V30 12 S 4.0539 1.4917 0.0 0
M  V30 13 C 3.8971 0.0 0.0 0
M  V30 14 N 9.5932 -3.7631 0.0 0
M  V30 15 C 2.598 -0.75 0.0 0
M  V30 16 C 10.2033 -5.1334 0.0 0
M  V30 17 O 2.598 -2.25 0.0 0
M  V30 18 N 1.299 0.0 0.0 0
M  V30 19 N 9.3216 -6.3469 0.0 0
M  V30 20 C 11.6951 -5.2902 0.0 0
M  V30 21 C 0.0 -0.75 0.0 0
M  V30 22 C 9.9317 -7.7173 0.0 0
M  V30 23 C 12.3052 -6.6605 0.0 0
M  V30 24 C 11.4235 -7.8741 0.0 0
M  V30 END ATOM
M  V30 BEGIN BOND
M  V30 1 2 1 2
M  V30 2 2 1 3
M  V30 3 1 1 4
M  V30 4 1 1 5
M  V30 5 1 4 6
M  V30 6 1 4 7
M  V30 7 2 5 8
M  V30 8 1 5 9
M  V30 9 1 6 10
M  V30 10 1 7 11
M  V30 11 1 8 12
M  V30 12 2 9 13
M  V30 13 1 10 14
M  V30 14 1 13 15
M  V30 15 1 14 16
M  V30 16 2 15 17
M  V30 17 1 15 18
M  V30 18 2 16 19
M  V30 19 1 16 20
M  V30 20 1 18 21
M  V30 21 1 19 22
M  V30 22 2 20 23
M  V30 23 2 22 24
M  V30 24 1 11 14
M  V30 25 1 12 13
M  V30 26 1 23 24
M  V30 END BOND
M  V30 END CTAB
M  END
>  <Rack>
PathogenBox_PlateB

>  <Position>
C07

>  <Compound ID>
MMV020136

>  <Disease Set>
MALARIA

>  <Trivial Name>


>  <Total Molecular Weight>
366.46

>  <Molecular Weight Parent Molecule>
366.46

>  <Molecular Formula>
C15H18N4O3S2

>  <Salt Name>


>  <Salt Coefficient>


>  <cLogP>
0.96

>  <SMILES>
CNC(=O)c1cc(cs1)S(=O)(=O)N2CCN(CC2)c3ccccn3

$$$$
Compound 107
Actelion Java MolfileCreator 2.0

  0  0  0  0  0  0              0 V3000
M  V30 BEGIN CTAB
M  V30 COUNTS 28 30 0 0 0
M  V30 BEGIN ATOM
M  V30 1 Cl 7.7942 0.0 0.0 0
M  V30 2 C 6.9282 -0.5 0.0 0
M  V30 3 C 6.0621 0.0 0.0 0
M  V30 4 C 6.9282 -1.5 0.0 0
M  V30 5 C 5.1961 -0.5 0.0 0
M  V30 6 C 6.0621 -2.0 0.0 0
M  V30 7 N 4.3301 0.0 0.0 0
M  V30 8 C 5.1961 -1.5 0.0 0
M  V30 9 C 3.4641 -0.5 0.0 0
M  V30 10 O 4.3301 -2.0 0.0 0
M  V30 11 O 3.4641 -1.5 0.0 0
M  V30 12 C 2.598 0.0 0.0 0
M  V30 13 C 4.3301 -3.0 0.0 0
M  V30 14 N 1.732 -0.5 0.0 0
M  V30 15 C 0.866 0.0 0.0 0
M  V30 16 C 1.732 -1.5 0.0 0
M  V30 17 O 0.866 1.0 0.0 0
M  V30 18 C 0.0 -0.5 0.0 0
M  V30 19 N -0.9135 -0.0932 0.0 0
M  V30 20 C -0.1045 -1.4945 0.0 0
M  V30 21 N -1.5826 -0.8364 0.0 0
M  V30 22 N -1.0826 -1.7024 0.0 0
M  V30 23 C -2.5771 -0.7318 0.0 0
M  V30 24 C -2.9839 0.1816 0.0 0
M  V30 25 C -3.1649 -1.5408 0.0 0
M  V30 26 C -3.9784 0.2861 0.0 0
M  V30 27 C -4.1595 -1.4363 0.0 0
M  V30 28 C -4.5662 -0.5228 0.0 0
M  V30 END ATOM
M  V30 BEGIN BOND
M  V30 1 1 1 2
M  V30 2 2 2 3
M  V30 3 1 2 4
M  V30 4 1 3 5
M  V30 5 2 4 6
M  V30 6 1 5 7
M  V30 7 2 5 8
M  V30 8 1 7 9
M  V30 9 1 8 10
M  V30 10 2 9 11
M  V30 11 1 9 12
M  V30 12 1 10 13
M  V30 13 1 12 14
M  V30 14 1 14 15
M  V30 15 1 14 16
M  V30 16 2 15 17
M  V30 17 1 15 18
M  V30 18 2 18 19
M  V30 19 1 18 20
M  V30 20 1 19 21
M  V30 21 2 20 22
M  V30 22 1 21 23
M  V30 23 2 23 24
M  V30 24 1 23 25
M  V30 25 1 24 26
M  V30 26 2 25 27
M  V30 27 2 26 28
M  V30 28 1 6 8
M  V30 29 1 21 22
M  V30 30 1 27 28
M  V30 END BOND
M  V30 END CTAB
M  END
>  <Rack>
PathogenBox_PlateB

>  <Position>
C08

>  <Compound ID>
MMV020710

>  <Disease Set>
MALARIA

>  <Trivial Name>


>  <Total Molecular Weight>
399.84

>  <Molecular Weight Parent Molecule>
399.84

>  <Molecular Formula>
C19H18N5O3Cl

>  <Salt Name>


>  <Salt Coefficient>


>  <cLogP>
1.98

>  <SMILES>
COc1ccc(Cl)cc1NC(=O)CN(C)C(=O)c2cnn(n2)c3ccccc3

$$$$
Compound 108
Actelion Java MolfileCreator 2.0

  0  0  0  0  0  0              0 V3000
M  V30 BEGIN CTAB
M  V30 COUNTS 27 30 0 0 0
M  V30 BEGIN ATOM
M  V30 1 O 3.4641 -0.5 0.0 0
M  V30 2 C 2.598 0.0 0.0 0
M  V30 3 N 1.732 -0.5 0.0 0
M  V30 4 C 2.598 1.0 0.0 0
M  V30 5 C 0.866 0.0 0.0 0
M  V30 6 C 1.732 1.4999 0.0 0
M  V30 7 C 3.4641 1.5 0.0 0
M  V30 8 C 0.0 -0.5 0.0 0
M  V30 9 C 1.732 2.5 0.0 0
M  V30 10 C 0.7809 1.1909 0.0 0
M  V30 11 C 3.4641 2.5 0.0 0
M  V30 12 C -0.866 0.0 0.0 0
M  V30 13 C 0.0 -1.4999 0.0 0
M  V30 14 N 2.598 3.0 0.0 0
M  V30 15 N 0.7809 2.809 0.0 0
M  V30 16 N 0.1932 2.0 0.0 0
M  V30 17 C 4.3301 3.0 0.0 0
M  V30 18 O -0.866 1.0 0.0 0
M  V30 19 C -1.732 -0.4999 0.0 0
M  V30 20 C -0.866 -1.9999 0.0 0
M  V30 21 C 0.4719 3.76 0.0 0
M  V30 22 C 5.3301 3.0 0.0 0
M  V30 23 C 4.8301 3.866 0.0 0
M  V30 24 C -1.732 1.5 0.0 0
M  V30 25 C -1.732 -1.4999 0.0 0
M  V30 26 C 1.1411 4.5032 0.0 0
M  V30 27 C -0.5061 3.9679 0.0 0
M  V30 END ATOM
M  V30 BEGIN BOND
M  V30 1 2 1 2
M  V30 2 1 2 3
M  V30 3 1 2 4
M  V30 4 1 3 5
M  V30 5 2 4 6
M  V30 6 1 4 7
M  V30 7 1 5 8
M  V30 8 1 6 9
M  V30 9 1 6 10
M  V30 10 2 7 11
M  V30 11 2 8 12
M  V30 12 1 8 13
M  V30 13 2 9 14
M  V30 14 1 9 15
M  V30 15 2 10 16
M  V30 16 1 11 17
M  V30 17 1 12 18
M  V30 18 1 12 19
M  V30 19 2 13 20
M  V30 20 1 15 21
M  V30 21 1 17 22
M  V30 22 1 17 23
M  V30 23 1 18 24
M  V30 24 2 19 25
M  V30 25 1 21 26
M  V30 26 1 21 27
M  V30 27 1 11 14
M  V30 28 1 15 16
M  V30 29 1 20 25
M  V30 30 1 22 23
M  V30 END BOND
M  V30 END CTAB
M  END
>  <Rack>
PathogenBox_PlateB

>  <Position>
C09

>  <Compound ID>
MMV020517

>  <Disease Set>
MALARIA

>  <Trivial Name>


>  <Total Molecular Weight>
364.45

>  <Molecular Weight Parent Molecule>
364.45

>  <Molecular Formula>
C21H24N4O2

>  <Salt Name>


>  <Salt Coefficient>


>  <cLogP>
3.02

>  <SMILES>
COc1ccccc1CNC(=O)c2cc(nc3c2cnn3C(C)C)C4CC4

$$$$
Compound 109
Actelion Java MolfileCreator 2.0

  0  0  0  0  0  0              0 V3000
M  V30 BEGIN CTAB
M  V30 COUNTS 28 30 0 0 0
M  V30 BEGIN ATOM
M  V30 1 Cl 9.0932 -3.0 0.0 0
M  V30 2 C 7.7942 -2.25 0.0 0
M  V30 3 C 7.7942 -0.75 0.0 0
M  V30 4 C 6.4952 -3.0 0.0 0
M  V30 5 C 9.0932 0.0 0.0 0
M  V30 6 C 6.4952 0.0 0.0 0
M  V30 7 C 5.1961 -2.25 0.0 0
M  V30 8 O 9.0932 1.5 0.0 0
M  V30 9 N 10.3923 -0.75 0.0 0
M  V30 10 C 5.1961 -0.75 0.0 0
M  V30 11 C 11.6913 0.0 0.0 0
M  V30 12 S 3.8971 0.0 0.0 0
M  V30 13 C 12.9904 -0.75 0.0 0
M  V30 14 C 11.6913 1.5 0.0 0
M  V30 15 O 4.6471 1.299 0.0 0
M  V30 16 O 3.1471 1.299 0.0 0
M  V30 17 N 2.598 -0.75 0.0 0
M  V30 18 C 14.2894 0.0 0.0 0
M  V30 19 C 12.9904 2.25 0.0 0
M  V30 20 C 2.598 -2.25 0.0 0
M  V30 21 C 1.299 0.0 0.0 0
M  V30 22 S 15.716 -0.4635 0.0 0
M  V30 23 C 14.2894 1.5 0.0 0
M  V30 24 C 3.8971 -3.0 0.0 0
M  V30 25 C 0.0 -0.75 0.0 0
M  V30 26 C 16.5977 0.75 0.0 0
M  V30 27 N 15.716 1.9635 0.0 0
M  V30 28 C 18.0977 0.75 0.0 0
M  V30 END ATOM
M  V30 BEGIN BOND
M  V30 1 1 1 2
M  V30 2 2 2 3
M  V30 3 1 2 4
M  V30 4 1 3 5
M  V30 5 1 3 6
M  V30 6 2 4 7
M  V30 7 2 5 8
M  V30 8 1 5 9
M  V30 9 2 6 10
M  V30 10 1 9 11
M  V30 11 1 10 12
M  V30 12 2 11 13
M  V30 13 1 11 14
M  V30 14 2 12 15
M  V30 15 2 12 16
M  V30 16 1 12 17
M  V30 17 1 13 18
M  V30 18 2 14 19
M  V30 19 1 17 20
M  V30 20 1 17 21
M  V30 21 1 18 22
M  V30 22 2 18 23
M  V30 23 1 20 24
M  V30 24 1 21 25
M  V30 25 1 22 26
M  V30 26 1 23 27
M  V30 27 1 26 28
M  V30 28 1 7 10
M  V30 29 1 19 23
M  V30 30 2 26 27
M  V30 END BOND
M  V30 END CTAB
M  END
>  <Rack>
PathogenBox_PlateB

>  <Position>
C10

>  <Compound ID>
MMV019721

>  <Disease Set>
MALARIA

>  <Trivial Name>


>  <Total Molecular Weight>
437.97

>  <Molecular Weight Parent Molecule>
437.97

>  <Molecular Formula>
C19H20N3O3ClS2

>  <Salt Name>


>  <Salt Coefficient>


>  <cLogP>
3.80

>  <SMILES>
CCN(CC)S(=O)(=O)c1ccc(Cl)c(c1)C(=O)Nc2ccc3nc(C)sc3c2

$$$$
Compound 110
Actelion Java MolfileCreator 2.0

  0  0  0  0  0  0              0 V3000
M  V30 BEGIN CTAB
M  V30 COUNTS 22 24 0 0 0
M  V30 BEGIN ATOM
M  V30 1 Cl 0.866 -1.9999 0.0 0
M  V30 2 C 1.732 -1.4999 0.0 0
M  V30 3 C 2.598 -1.9999 0.0 0
M  V30 4 C 1.732 -0.5 0.0 0
M  V30 5 O 2.598 -3.0 0.0 0
M  V30 6 N 3.4641 -1.4999 0.0 0
M  V30 7 S 0.866 0.0 0.0 0
M  V30 8 C 2.598 0.0 0.0 0
M  V30 9 N 3.4641 -0.5 0.0 0
M  V30 10 C 4.3301 -1.9999 0.0 0
M  V30 11 C 0.0 -0.5 0.0 0
M  V30 12 C 4.3301 -3.0 0.0 0
M  V30 13 C 5.1961 -1.4999 0.0 0
M  V30 14 S -0.9135 -0.0932 0.0 0
M  V30 15 N -0.1045 -1.4945 0.0 0
M  V30 16 C 5.1961 -3.4999 0.0 0
M  V30 17 C 6.0621 -1.9999 0.0 0
M  V30 18 C -1.5826 -0.8364 0.0 0
M  V30 19 N -1.0826 -1.7024 0.0 0
M  V30 20 C 6.0621 -2.9999 0.0 0
M  V30 21 N -2.5771 -0.7318 0.0 0
M  V30 22 C -3.1649 -1.5408 0.0 0
M  V30 END ATOM
M  V30 BEGIN BOND
M  V30 1 1 1 2
M  V30 2 1 2 3
M  V30 3 2 2 4
M  V30 4 2 3 5
M  V30 5 1 3 6
M  V30 6 1 4 7
M  V30 7 1 4 8
M  V30 8 1 6 9
M  V30 9 1 6 10
M  V30 10 1 7 11
M  V30 11 2 10 12
M  V30 12 1 10 13
M  V30 13 1 11 14
M  V30 14 2 11 15
M  V30 15 1 12 16
M  V30 16 2 13 17
M  V30 17 1 14 18
M  V30 18 1 15 19
M  V30 19 2 16 20
M  V30 20 1 18 21
M  V30 21 1 21 22
M  V30 22 2 8 9
M  V30 23 1 17 20
M  V30 24 2 18 19
M  V30 END BOND
M  V30 END CTAB
M  END
>  <Rack>
PathogenBox_PlateB

>  <Position>
C11

>  <Compound ID>
MMV688763

>  <Disease Set>
SCHISTOSOMIASIS

>  <Trivial Name>


>  <Total Molecular Weight>
351.83

>  <Molecular Weight Parent Molecule>
351.83

>  <Molecular Formula>
C13H10N5OClS2

>  <Salt Name>


>  <Salt Coefficient>


>  <cLogP>
2.88

>  <SMILES>
CNc1nnc(SC2=C(Cl)C(=O)N(N=C2)c3ccccc3)s1

$$$$
Compound 111
Actelion Java MolfileCreator 2.0

  0  0  0  0  0  0              0 V3000
M  V30 BEGIN CTAB
M  V30 COUNTS 22 25 0 0 0
M  V30 BEGIN ATOM
M  V30 1 Cl 0.9228 3.5249 0.0 0
M  V30 2 C 1.9173 3.6294 0.0 0
M  V30 3 C 2.5051 2.8204 0.0 0
M  V30 4 C 2.3241 4.543 0.0 0
M  V30 5 C 3.4997 2.9249 0.0 0
M  V30 6 C 3.3186 4.6475 0.0 0
M  V30 7 N 4.0874 2.1159 0.0 0
M  V30 8 C 3.9064 3.8385 0.0 0
M  V30 9 C 3.6807 1.2024 0.0 0
M  V30 10 C 5.082 2.2205 0.0 0
M  V30 11 O 4.9009 3.943 0.0 0
M  V30 12 S 2.7026 0.9945 0.0 0
M  V30 13 C 4.1807 0.3364 0.0 0
M  V30 14 C 5.4887 3.134 0.0 0
M  V30 15 C 2.598 0.0 0.0 0
M  V30 16 C 3.5116 -0.4067 0.0 0
M  V30 17 C 1.732 -0.5 0.0 0
M  V30 18 O 1.732 -1.5 0.0 0
M  V30 19 N 0.866 0.0 0.0 0
M  V30 20 C 0.0 -0.5 0.0 0
M  V30 21 C -1.0 -0.4999 0.0 0
M  V30 22 C -0.5 -1.366 0.0 0
M  V30 END ATOM
M  V30 BEGIN BOND
M  V30 1 1 1 2
M  V30 2 2 2 3
M  V30 3 1 2 4
M  V30 4 1 3 5
M  V30 5 2 4 6
M  V30 6 1 5 7
M  V30 7 2 5 8
M  V30 8 1 7 9
M  V30 9 1 7 10
M  V30 10 1 8 11
M  V30 11 1 9 12
M  V30 12 2 9 13
M  V30 13 1 10 14
M  V30 14 1 12 15
M  V30 15 1 13 16
M  V30 16 1 15 17
M  V30 17 2 17 18
M  V30 18 1 17 19
M  V30 19 1 19 20
M  V30 20 1 20 21
M  V30 21 1 20 22
M  V30 22 1 6 8
M  V30 23 1 11 14
M  V30 24 2 15 16
M  V30 25 1 21 22
M  V30 END BOND
M  V30 END CTAB
M  END
>  <Rack>
PathogenBox_PlateB

>  <Position>
D02

>  <Compound ID>
MMV020537

>  <Disease Set>
MALARIA

>  <Trivial Name>


>  <Total Molecular Weight>
334.82

>  <Molecular Weight Parent Molecule>
334.82

>  <Molecular Formula>
C16H15N2O2ClS

>  <Salt Name>


>  <Salt Coefficient>


>  <cLogP>
3.89

>  <SMILES>
Clc1ccc2OCCN(c3ccc(s3)C(=O)NC4CC4)c2c1

$$$$
Compound 112
Actelion Java MolfileCreator 2.0

  0  0  0  0  0  0              0 V3000
M  V30 BEGIN CTAB
M  V30 COUNTS 86 93 0 0 0
M  V30 BEGIN ATOM
M  V30 1 S 11.2583 3.0 0.0 0
M  V30 2 O 12.2583 3.0 0.0 0
M  V30 3 O 10.2583 3.0 0.0 0
M  V30 4 O 11.2583 2.0 0.0 0
M  V30 5 C 11.2583 4.0 0.0 0
M  V30 6 C 10.3923 4.5 0.0 0
M  V30 7 C 12.1243 4.5 0.0 0
M  V30 8 C 9.5262 4.0 0.0 0
M  V30 9 C 10.3923 5.5 0.0 0
M  V30 10 C 12.1243 5.5 0.0 0
M  V30 11 N 9.5262 2.9999 0.0 0
M  V30 12 C 8.6602 4.4999 0.0 0
M  V30 13 C 9.5262 5.9999 0.0 0
M  V30 14 C 11.2583 6.0 0.0 0
M  V30 15 S 12.9903 6.0 0.0 0
M  V30 16 C 8.6602 2.4999 0.0 0
M  V30 17 C 8.6602 5.4999 0.0 0
M  V30 18 S 9.5262 6.9999 0.0 0
M  V30 19 O 12.4903 6.866 0.0 0
M  V30 20 O 13.4903 5.1339 0.0 0
M  V30 21 O 13.8564 6.5 0.0 0
M  V30 22 O 7.7942 2.9999 0.0 0
M  V30 23 C 8.6602 1.4999 0.0 0
M  V30 24 O 8.5262 6.9999 0.0 0
M  V30 25 O 10.5262 7.0 0.0 0
M  V30 26 O 9.5262 7.9999 0.0 0
M  V30 27 C 7.7942 0.9999 0.0 0
M  V30 28 C 9.5262 0.9999 0.0 0
M  V30 29 C 7.7942 0.0 0.0 0
M  V30 30 C 9.5262 0.0 0.0 0
M  V30 31 N 6.9282 -0.5 0.0 0
M  V30 32 C 8.6602 -0.5 0.0 0
M  V30 33 C 6.0621 0.0 0.0 0
M  V30 34 C 8.6602 -1.5 0.0 0
M  V30 35 O 6.0621 0.9999 0.0 0
M  V30 36 C 5.1961 -0.5 0.0 0
M  V30 37 C 4.3301 0.0 0.0 0
M  V30 38 C 5.1961 -1.4999 0.0 0
M  V30 39 C 3.4641 -0.5 0.0 0
M  V30 40 C 4.3301 -1.9999 0.0 0
M  V30 41 N 2.598 0.0 0.0 0
M  V30 42 C 3.4641 -1.4999 0.0 0
M  V30 43 C 1.732 -0.5 0.0 0
M  V30 44 O 1.732 -1.5 0.0 0
M  V30 45 N 0.866 0.0 0.0 0
M  V30 46 C 0.0 -0.5 0.0 0
M  V30 47 C -0.866 0.0 0.0 0
M  V30 48 C 0.0 -1.4999 0.0 0
M  V30 49 C -1.732 -0.4999 0.0 0
M  V30 50 C -0.866 -1.9999 0.0 0
M  V30 51 C -2.598 0.0 0.0 0
M  V30 52 C -1.732 -1.4999 0.0 0
M  V30 53 O -3.4641 -0.4999 0.0 0
M  V30 54 N -2.598 1.0 0.0 0
M  V30 55 C -3.4641 1.5 0.0 0
M  V30 56 C -3.4641 2.5 0.0 0
M  V30 57 C -4.3301 1.0 0.0 0
M  V30 58 C -4.3301 3.0 0.0 0
M  V30 59 C -2.598 3.0 0.0 0
M  V30 60 C -5.1961 1.5 0.0 0
M  V30 61 C -5.1961 2.5 0.0 0
M  V30 62 C -6.0621 1.0 0.0 0
M  V30 63 O -6.0621 0.0 0.0 0
M  V30 64 N -6.9282 1.5 0.0 0
M  V30 65 C -7.7942 1.0 0.0 0
M  V30 66 C -8.6602 1.5 0.0 0
M  V30 67 C -7.7942 0.0 0.0 0
M  V30 68 C -8.6602 2.5 0.0 0
M  V30 69 C -9.5262 1.0 0.0 0
M  V30 70 C -8.6602 -0.4999 0.0 0
M  V30 71 S -7.7942 3.0 0.0 0
M  V30 72 C -9.5262 3.0 0.0 0
M  V30 73 C -9.5262 0.0 0.0 0
M  V30 74 C -10.3923 1.5 0.0 0
M  V30 75 O -7.2942 2.1339 0.0 0
M  V30 76 O -8.2942 3.866 0.0 0
M  V30 77 O -6.9282 3.5 0.0 0
M  V30 78 C -10.3923 2.5 0.0 0
M  V30 79 S -10.3923 -0.4999 0.0 0
M  V30 80 S -11.2583 3.0 0.0 0
M  V30 81 O -10.8923 0.366 0.0 0
M  V30 82 O -9.8923 -1.366 0.0 0
M  V30 83 O -11.2583 -0.9999 0.0 0
M  V30 84 O -10.7583 3.866 0.0 0
M  V30 85 O -11.7583 2.1339 0.0 0
M  V30 86 O -12.1243 3.5 0.0 0
M  V30 END ATOM
M  V30 BEGIN BOND
M  V30 1 2 1 2
M  V30 2 2 1 3
M  V30 3 1 1 4
M  V30 4 1 1 5
M  V30 5 1 5 6
M  V30 6 2 5 7
M  V30 7 2 6 8
M  V30 8 1 6 9
M  V30 9 1 7 10
M  V30 10 1 8 11
M  V30 11 1 8 12
M  V30 12 2 9 13
M  V30 13 1 9 14
M  V30 14 1 10 15
M  V30 15 1 11 16
M  V30 16 2 12 17
M  V30 17 1 13 18
M  V30 18 2 15 19
M  V30 19 2 15 20
M  V30 20 1 15 21
M  V30 21 2 16 22
M  V30 22 1 16 23
M  V30 23 2 18 24
M  V30 24 2 18 25
M  V30 25 1 18 26
M  V30 26 2 23 27
M  V30 27 1 23 28
M  V30 28 1 27 29
M  V30 29 2 28 30
M  V30 30 1 29 31
M  V30 31 2 29 32
M  V30 32 1 31 33
M  V30 33 1 32 34
M  V30 34 2 33 35
M  V30 35 1 33 36
M  V30 36 2 36 37
M  V30 37 1 36 38
M  V30 38 1 37 39
M  V30 39 2 38 40
M  V30 40 1 39 41
M  V30 41 2 39 42
M  V30 42 1 41 43
M  V30 43 2 43 44
M  V30 44 1 43 45
M  V30 45 1 45 46
M  V30 46 2 46 47
M  V30 47 1 46 48
M  V30 48 1 47 49
M  V30 49 2 48 50
M  V30 50 1 49 51
M  V30 51 2 49 52
M  V30 52 2 51 53
M  V30 53 1 51 54
M  V30 54 1 54 55
M  V30 55 2 55 56
M  V30 56 1 55 57
M  V30 57 1 56 58
M  V30 58 1 56 59
M  V30 59 2 57 60
M  V30 60 2 58 61
M  V30 61 1 60 62
M  V30 62 2 62 63
M  V30 63 1 62 64
M  V30 64 1 64 65
M  V30 65 1 65 66
M  V30 66 2 65 67
M  V30 67 2 66 68
M  V30 68 1 66 69
M  V30 69 1 67 70
M  V30 70 1 68 71
M  V30 71 1 68 72
M  V30 72 1 69 73
M  V30 73 2 69 74
M  V30 74 2 71 75
M  V30 75 2 71 76
M  V30 76 1 71 77
M  V30 77 2 72 78
M  V30 78 1 73 79
M  V30 79 1 78 80
M  V30 80 2 79 81
M  V30 81 2 79 82
M  V30 82 1 79 83
M  V30 83 2 80 84
M  V30 84 2 80 85
M  V30 85 1 80 86
M  V30 86 2 10 14
M  V30 87 1 13 17
M  V30 88 1 30 32
M  V30 89 1 40 42
M  V30 90 1 50 52
M  V30 91 1 60 61
M  V30 92 2 70 73
M  V30 93 1 74 78
M  V30 END BOND
M  V30 END CTAB
M  END
>  <Rack>
PathogenBox_PlateB

>  <Position>
D03

>  <Compound ID>
MMV637953

>  <Disease Set>
REFERENCE COMPOUNDS

>  <Trivial Name>
Suramin

>  <Total Molecular Weight>
1435.28

>  <Molecular Weight Parent Molecule>
1297.28

>  <Molecular Formula>
C51H40N6O23S6

>  <Salt Name>
Sodium

>  <Salt Coefficient>
6

>  <cLogP>
-2.91

>  <SMILES>
Cc1ccc(cc1NC(=O)c2cccc(NC(=O)Nc3cccc(c3)C(=O)Nc4cc(ccc4C)C(=O)Nc5ccc(c6cc(cc(c56)S(=O)(=O)O)S(=O)(=O)O)S(=O)(=O)O)c2)C(=O)Nc7ccc(c8cc(cc(c78)S(=O)(=O)O)S(=O)(=O)O)S(=O)(=O)O

$$$$
Compound 113
Actelion Java MolfileCreator 2.0

  0  0  0  0  0  0              0 V3000
M  V30 BEGIN CTAB
M  V30 COUNTS 25 27 0 0 0
M  V30 BEGIN ATOM
M  V30 1 S 11.3794 -4.4672 0.0 0
M  V30 2 C 11.6913 -3.0 0.0 0
M  V30 3 C 9.8876 -4.624 0.0 0
M  V30 4 N 12.9903 -2.25 0.0 0
M  V30 5 C 10.3923 -2.25 0.0 0
M  V30 6 C 9.1376 -5.923 0.0 0
M  V30 7 C 9.2775 -3.2536 0.0 0
M  V30 8 C 12.9903 -0.75 0.0 0
M  V30 9 C 10.3923 -0.75 0.0 0
M  V30 10 C 7.6376 -5.923 0.0 0
M  V30 11 C 9.8876 -7.222 0.0 0
M  V30 12 N 11.6913 0.0 0.0 0
M  V30 13 S 9.0932 0.0 0.0 0
M  V30 14 C 6.8876 -7.222 0.0 0
M  V30 15 C 9.1376 -8.5211 0.0 0
M  V30 16 C 7.7942 -0.75 0.0 0
M  V30 17 C 7.6376 -8.5211 0.0 0
M  V30 18 C 6.4951 0.0 0.0 0
M  V30 19 O 6.4951 1.5 0.0 0
M  V30 20 N 5.1961 -0.75 0.0 0
M  V30 21 C 3.8971 0.0 0.0 0 CFG=2
M  V30 22 C 2.598 -0.75 0.0 0
M  V30 23 C 3.8971 1.5 0.0 0
M  V30 24 O 1.299 0.0 0.0 0
M  V30 25 C 0.0 -0.75 0.0 0
M  V30 END ATOM
M  V30 BEGIN BOND
M  V30 1 1 1 2
M  V30 2 1 1 3
M  V30 3 2 2 4
M  V30 4 1 2 5
M  V30 5 1 3 6
M  V30 6 2 3 7
M  V30 7 1 4 8
M  V30 8 2 5 9
M  V30 9 2 6 10
M  V30 10 1 6 11
M  V30 11 2 8 12
M  V30 12 1 9 13
M  V30 13 1 10 14
M  V30 14 2 11 15
M  V30 15 1 13 16
M  V30 16 2 14 17
M  V30 17 1 16 18
M  V30 18 2 18 19
M  V30 19 1 18 20
M  V30 20 1 21 20 CFG=3
M  V30 21 1 21 22
M  V30 22 1 21 23
M  V30 23 1 22 24
M  V30 24 1 24 25
M  V30 25 1 5 7
M  V30 26 1 9 12
M  V30 27 1 15 17
M  V30 END BOND
M  V30 BEGIN COLLECTION
M  V30 MDLV30/STERAC1 ATOMS=(1 21)
M  V30 END COLLECTION
M  V30 END CTAB
M  END
>  <Rack>
PathogenBox_PlateB

>  <Position>
D04

>  <Compound ID>
MMV676536

>  <Disease Set>
SCHISTOSOMIASIS

>  <Trivial Name>


>  <Total Molecular Weight>
373.49

>  <Molecular Weight Parent Molecule>
373.49

>  <Molecular Formula>
C18H19N3O2S2

>  <Salt Name>


>  <Salt Coefficient>


>  <cLogP>
3.05

>  <SMILES>
COCC(C)NC(=O)CSc1ncnc2sc(cc12)-c1ccccc1

$$$$
Compound 114
Actelion Java MolfileCreator 2.0

  0  0  0  0  0  0              0 V3000
M  V30 BEGIN CTAB
M  V30 COUNTS 25 26 0 0 0
M  V30 BEGIN ATOM
M  V30 1 O 16.8874 0.0 0.0 0
M  V30 2 C 15.5884 -0.7499 0.0 0
M  V30 3 C 16.8874 1.5 0.0 0
M  V30 4 C 14.2894 0.0 0.0 0
M  V30 5 C 15.5884 -2.2499 0.0 0
M  V30 6 C 12.9903 -0.75 0.0 0
M  V30 7 C 14.2894 -3.0 0.0 0
M  V30 8 N 11.6913 0.0 0.0 0
M  V30 9 C 12.9903 -2.25 0.0 0
M  V30 10 C 14.2894 -4.4999 0.0 0
M  V30 11 C 10.3923 -0.75 0.0 0
M  V30 12 N 11.6913 -3.0 0.0 0
M  V30 13 C 12.9903 -5.25 0.0 0
M  V30 14 C 15.5884 -5.2499 0.0 0
M  V30 15 C 9.0932 0.0 0.0 0
M  V30 16 C 11.6913 -4.5 0.0 0
M  V30 17 C 7.7942 -0.75 0.0 0
M  V30 18 C 6.4951 0.0 0.0 0
M  V30 19 C 5.1961 -0.75 0.0 0
M  V30 20 C 3.8971 0.0 0.0 0
M  V30 21 N 2.598 -0.75 0.0 0
M  V30 22 C 2.598 -2.25 0.0 0
M  V30 23 C 1.299 0.0 0.0 0
M  V30 24 C 3.8971 -3.0 0.0 0
M  V30 25 C 0.0 -0.75 0.0 0
M  V30 END ATOM
M  V30 BEGIN BOND
M  V30 1 1 1 2
M  V30 2 1 1 3
M  V30 3 1 2 4
M  V30 4 2 2 5
M  V30 5 2 4 6
M  V30 6 1 5 7
M  V30 7 1 6 8
M  V30 8 1 6 9
M  V30 9 2 7 10
M  V30 10 1 8 11
M  V30 11 2 9 12
M  V30 12 1 10 13
M  V30 13 1 10 14
M  V30 14 1 11 15
M  V30 15 1 12 16
M  V30 16 1 15 17
M  V30 17 1 17 18
M  V30 18 1 18 19
M  V30 19 1 19 20
M  V30 20 1 20 21
M  V30 21 1 21 22
M  V30 22 1 21 23
M  V30 23 1 22 24
M  V30 24 1 23 25
M  V30 25 1 7 9
M  V30 26 2 13 16
M  V30 END BOND
M  V30 END CTAB
M  END
>  <Rack>
PathogenBox_PlateB

>  <Position>
D05

>  <Compound ID>
MMV000063

>  <Disease Set>
REFERENCE COMPOUNDS

>  <Trivial Name>
Sitamaquine

>  <Total Molecular Weight>
515.71

>  <Molecular Weight Parent Molecule>
343.51

>  <Molecular Formula>
C21H33N3O

>  <Salt Name>
Tosic Acid

>  <Salt Coefficient>
1

>  <cLogP>
4.23

>  <SMILES>
CCN(CC)CCCCCCNc1cc(OC)cc2c(C)ccnc12

$$$$
Compound 115
Actelion Java MolfileCreator 2.0

  0  0  0  0  0  0              0 V3000
M  V30 BEGIN CTAB
M  V30 COUNTS 18 19 0 0 0
M  V30 BEGIN ATOM
M  V30 1 O 4.3301 0.0 0.0 0
M  V30 2 C 3.4641 -0.5 0.0 0
M  V30 3 O 3.4641 -1.5 0.0 0
M  V30 4 C 2.598 0.0 0.0 0 CFG=2
M  V30 5 O 2.598 1.0 0.0 0
M  V30 6 C 1.732 -0.5 0.0 0 CFG=2
M  V30 7 O 1.732 -1.5 0.0 0
M  V30 8 C 0.866 0.0 0.0 0
M  V30 9 N 0.0 -0.5 0.0 0
M  V30 10 C -0.9135 -0.0932 0.0 0
M  V30 11 C -0.1045 -1.4945 0.0 0
M  V30 12 N -1.2225 0.8577 0.0 0
M  V30 13 C -1.5826 -0.8364 0.0 0
M  V30 14 N -1.0826 -1.7024 0.0 0
M  V30 15 C -2.2007 1.0657 0.0 0
M  V30 16 C -2.5608 -0.6284 0.0 0
M  V30 17 N -2.8698 0.3225 0.0 0
M  V30 18 N -3.2299 -1.3716 0.0 0
M  V30 END ATOM
M  V30 BEGIN BOND
M  V30 1 2 1 2
M  V30 2 1 2 3
M  V30 3 1 4 2
M  V30 4 1 4 5 CFG=1
M  V30 5 1 6 4
M  V30 6 1 6 7 CFG=3
M  V30 7 1 6 8
M  V30 8 1 8 9
M  V30 9 1 9 10
M  V30 10 1 9 11
M  V30 11 2 10 12
M  V30 12 1 10 13
M  V30 13 2 11 14
M  V30 14 1 12 15
M  V30 15 2 13 16
M  V30 16 2 15 17
M  V30 17 1 16 18
M  V30 18 1 13 14
M  V30 19 1 16 17
M  V30 END BOND
M  V30 BEGIN COLLECTION
M  V30 MDLV30/STEABS ATOMS=(2 4 6)
M  V30 END COLLECTION
M  V30 END CTAB
M  END
>  <Rack>
PathogenBox_PlateB

>  <Position>
D06

>  <Compound ID>
MMV689255

>  <Disease Set>
CRYPTOSPORIDIOSIS

>  <Trivial Name>
D-Eritadenine

>  <Total Molecular Weight>
253.21

>  <Molecular Weight Parent Molecule>
253.21

>  <Molecular Formula>
C9H11N5O4

>  <Salt Name>


>  <Salt Coefficient>


>  <cLogP>
-2.54

>  <SMILES>
Nc1ncnc2c1ncn2C[C@@H](O)[C@@H](O)C(=O)O

$$$$
Compound 116
Actelion Java MolfileCreator 2.0

  0  0  0  0  0  0              0 V3000
M  V30 BEGIN CTAB
M  V30 COUNTS 29 31 0 0 0
M  V30 BEGIN ATOM
M  V30 1 F 2.4641 2.5 0.0 0
M  V30 2 C 3.4641 2.5 0.0 0
M  V30 3 F 3.4641 3.5 0.0 0
M  V30 4 F 4.4641 2.5 0.0 0
M  V30 5 C 3.4641 1.5 0.0 0
M  V30 6 C 2.598 1.0 0.0 0
M  V30 7 C 4.3301 1.0 0.0 0
M  V30 8 C 2.598 0.0 0.0 0
M  V30 9 C 4.3301 0.0 0.0 0
M  V30 10 C 1.732 -0.5 0.0 0
M  V30 11 C 3.4641 -0.4999 0.0 0
M  V30 12 C 5.1961 -0.5 0.0 0
M  V30 13 O 1.732 -1.5 0.0 0
M  V30 14 N 0.866 0.0 0.0 0
M  V30 15 F 5.6961 0.366 0.0 0
M  V30 16 F 6.0621 -1.0 0.0 0
M  V30 17 F 4.6961 -1.366 0.0 0
M  V30 18 C 0.0 -0.5 0.0 0
M  V30 19 N -0.866 0.0 0.0 0
M  V30 20 C 0.0 -1.4999 0.0 0
M  V30 21 C -1.732 -0.4999 0.0 0
M  V30 22 C -0.866 -1.9999 0.0 0
M  V30 23 N -1.732 -1.4999 0.0 0
M  V30 24 C -2.598 0.0 0.0 0
M  V30 25 C -2.598 1.0 0.0 0
M  V30 26 C -3.4641 -0.4999 0.0 0
M  V30 27 N -3.4641 1.5 0.0 0
M  V30 28 C -4.3301 0.0 0.0 0
M  V30 29 C -4.3301 1.0 0.0 0
M  V30 END ATOM
M  V30 BEGIN BOND
M  V30 1 1 1 2
M  V30 2 1 2 3
M  V30 3 1 2 4
M  V30 4 1 2 5
M  V30 5 2 5 6
M  V30 6 1 5 7
M  V30 7 1 6 8
M  V30 8 2 7 9
M  V30 9 1 8 10
M  V30 10 2 8 11
M  V30 11 1 9 12
M  V30 12 2 10 13
M  V30 13 1 10 14
M  V30 14 1 12 15
M  V30 15 1 12 16
M  V30 16 1 12 17
M  V30 17 1 14 18
M  V30 18 2 18 19
M  V30 19 1 18 20
M  V30 20 1 19 21
M  V30 21 2 20 22
M  V30 22 2 21 23
M  V30 23 1 21 24
M  V30 24 2 24 25
M  V30 25 1 24 26
M  V30 26 1 25 27
M  V30 27 2 26 28
M  V30 28 2 27 29
M  V30 29 1 9 11
M  V30 30 1 22 23
M  V30 31 1 28 29
M  V30 END BOND
M  V30 END CTAB
M  END
>  <Rack>
PathogenBox_PlateB

>  <Position>
D07

>  <Compound ID>
MMV019838

>  <Disease Set>
MALARIA

>  <Trivial Name>


>  <Total Molecular Weight>
412.29

>  <Molecular Weight Parent Molecule>
412.29

>  <Molecular Formula>
C18H10N4OF6

>  <Salt Name>


>  <Salt Coefficient>


>  <cLogP>
3.93

>  <SMILES>
FC(F)(F)c1cc(cc(c1)C(F)(F)F)C(=O)Nc2ccnc(n2)c3cccnc3

$$$$
Compound 117
Actelion Java MolfileCreator 2.0

  0  0  0  0  0  0              0 V3000
M  V30 BEGIN CTAB
M  V30 COUNTS 31 35 0 0 0
M  V30 BEGIN ATOM
M  V30 1 O 5.1961 -1.5 0.0 0
M  V30 2 C 5.1961 -0.5 0.0 0
M  V30 3 N 6.0621 0.0 0.0 0
M  V30 4 C 4.3301 0.0 0.0 0 CFG=1
M  V30 5 C 6.9282 -0.5 0.0 0
M  V30 6 C 6.0621 0.9999 0.0 0
M  V30 7 O 4.3301 1.0 0.0 0
M  V30 8 C 3.4641 -0.4999 0.0 0
M  V30 9 C 7.7942 0.0 0.0 0
M  V30 10 C 6.9282 1.4999 0.0 0
M  V30 11 C 3.4641 1.5 0.0 0
M  V30 12 N 2.598 0.0 0.0 0
M  V30 13 C 7.7942 0.9999 0.0 0
M  V30 14 C 2.598 1.0 0.0 0
M  V30 15 C 3.4641 2.4999 0.0 0
M  V30 16 C 1.732 -0.5 0.0 0
M  V30 17 C 1.732 1.5 0.0 0
M  V30 18 C 2.598 3.0 0.0 0
M  V30 19 O 1.732 -1.5 0.0 0
M  V30 20 C 0.866 0.0 0.0 0
M  V30 21 C 1.732 2.4999 0.0 0
M  V30 22 N 0.0 -0.5 0.0 0
M  V30 23 C -0.9135 -0.0932 0.0 0
M  V30 24 C -0.1045 -1.4945 0.0 0
M  V30 25 C -1.5826 -0.8364 0.0 0
M  V30 26 C -1.2225 0.8577 0.0 0
M  V30 27 C -1.0826 -1.7024 0.0 0
M  V30 28 C 0.6386 -2.1636 0.0 0
M  V30 29 C -2.5608 -0.6284 0.0 0
M  V30 30 C -2.2007 1.0657 0.0 0
M  V30 31 C -2.8698 0.3225 0.0 0
M  V30 END ATOM
M  V30 BEGIN BOND
M  V30 1 2 1 2
M  V30 2 1 2 3
M  V30 3 1 4 2 CFG=3
M  V30 4 1 3 5
M  V30 5 1 3 6
M  V30 6 1 4 7
M  V30 7 1 4 8
M  V30 8 1 5 9
M  V30 9 1 6 10
M  V30 10 1 7 11
M  V30 11 1 8 12
M  V30 12 1 9 13
M  V30 13 2 11 14
M  V30 14 1 11 15
M  V30 15 1 12 16
M  V30 16 1 14 17
M  V30 17 2 15 18
M  V30 18 2 16 19
M  V30 19 1 16 20
M  V30 20 2 17 21
M  V30 21 1 20 22
M  V30 22 1 22 23
M  V30 23 1 22 24
M  V30 24 2 23 25
M  V30 25 1 23 26
M  V30 26 2 24 27
M  V30 27 1 24 28
M  V30 28 1 25 29
M  V30 29 2 26 30
M  V30 30 2 29 31
M  V30 31 1 10 13
M  V30 32 1 12 14
M  V30 33 1 18 21
M  V30 34 1 25 27
M  V30 35 1 30 31
M  V30 END BOND
M  V30 BEGIN COLLECTION
M  V30 MDLV30/STERAC1 ATOMS=(1 4)
M  V30 END COLLECTION
M  V30 END CTAB
M  END
>  <Rack>
PathogenBox_PlateB

>  <Position>
D08

>  <Compound ID>
MMV020520

>  <Disease Set>
MALARIA

>  <Trivial Name>


>  <Total Molecular Weight>
417.51

>  <Molecular Weight Parent Molecule>
417.51

>  <Molecular Formula>
C25H27N3O3

>  <Salt Name>


>  <Salt Coefficient>


>  <cLogP>
3.41

>  <SMILES>
Cc1cc2ccccc2n1CC(=O)N3CC(Oc4ccccc34)C(=O)N5CCCCC5

$$$$
Compound 118
Actelion Java MolfileCreator 2.0

  0  0  0  0  0  0              0 V3000
M  V30 BEGIN CTAB
M  V30 COUNTS 27 30 0 0 0
M  V30 BEGIN ATOM
M  V30 1 S 7.2138 0.2012 0.0 0
M  V30 2 C 6.4638 -1.0978 0.0 0
M  V30 3 C 8.681 -0.1106 0.0 0
M  V30 4 C 4.972 -1.2546 0.0 0
M  V30 5 C 7.4675 -2.2125 0.0 0
M  V30 6 C 8.8378 -1.6024 0.0 0
M  V30 7 N 3.9683 -0.1398 0.0 0
M  V30 8 C 4.222 -2.5536 0.0 0
M  V30 9 N 2.598 -0.75 0.0 0
M  V30 10 C 2.7548 -2.2417 0.0 0 CFG=2
M  V30 11 C 1.299 0.0 0.0 0
M  V30 12 C 1.6401 -3.2454 0.0 0
M  V30 13 O 0.0 -0.75 0.0 0
M  V30 14 C 1.299 1.4999 0.0 0
M  V30 15 C 0.2135 -2.7819 0.0 0
M  V30 16 C 1.952 -4.7127 0.0 0
M  V30 17 O 0.0855 2.3816 0.0 0
M  V30 18 C 2.5125 2.3816 0.0 0
M  V30 19 C -0.9011 -3.7856 0.0 0
M  V30 20 C 0.8373 -5.7163 0.0 0
M  V30 21 C 0.549 3.8082 0.0 0
M  V30 22 C 2.049 3.8082 0.0 0
M  V30 23 O -2.3277 -3.3221 0.0 0
M  V30 24 C -0.5892 -5.2528 0.0 0
M  V30 25 C -3.4424 -4.3258 0.0 0
M  V30 26 O -1.704 -6.2565 0.0 0
M  V30 27 C -1.3921 -7.7237 0.0 0
M  V30 END ATOM
M  V30 BEGIN BOND
M  V30 1 1 1 2
M  V30 2 1 1 3
M  V30 3 1 2 4
M  V30 4 2 2 5
M  V30 5 2 3 6
M  V30 6 2 4 7
M  V30 7 1 4 8
M  V30 8 1 7 9
M  V30 9 1 10 8
M  V30 10 1 9 11
M  V30 11 1 10 12 CFG=1
M  V30 12 2 11 13
M  V30 13 1 11 14
M  V30 14 2 12 15
M  V30 15 1 12 16
M  V30 16 1 14 17
M  V30 17 2 14 18
M  V30 18 1 15 19
M  V30 19 2 16 20
M  V30 20 1 17 21
M  V30 21 1 18 22
M  V30 22 1 19 23
M  V30 23 2 19 24
M  V30 24 1 23 25
M  V30 25 1 24 26
M  V30 26 1 26 27
M  V30 27 1 5 6
M  V30 28 1 9 10
M  V30 29 1 20 24
M  V30 30 2 21 22
M  V30 END BOND
M  V30 BEGIN COLLECTION
M  V30 MDLV30/STERAC1 ATOMS=(1 10)
M  V30 END COLLECTION
M  V30 END CTAB
M  END
>  <Rack>
PathogenBox_PlateB

>  <Position>
D09

>  <Compound ID>
MMV019234

>  <Disease Set>
MALARIA

>  <Trivial Name>


>  <Total Molecular Weight>
382.44

>  <Molecular Weight Parent Molecule>
382.44

>  <Molecular Formula>
C20H18N2O4S

>  <Salt Name>


>  <Salt Coefficient>


>  <cLogP>
3.59

>  <SMILES>
COc1ccc(cc1OC)C2CC(=NN2C(=O)c3occc3)c4cccs4

$$$$
Compound 119
Actelion Java MolfileCreator 2.0

  0  0  0  0  0  0              0 V3000
M  V30 BEGIN CTAB
M  V30 COUNTS 25 28 0 0 0
M  V30 BEGIN ATOM
M  V30 1 Cl 4.3464 -2.5623 0.0 0
M  V30 2 C 4.0374 -3.5133 0.0 0
M  V30 3 C 3.0592 -3.7212 0.0 0
M  V30 4 C 4.7065 -4.2565 0.0 0
M  V30 5 C 2.3901 -2.9781 0.0 0
M  V30 6 C 2.7502 -4.6723 0.0 0
M  V30 7 C 4.3975 -5.2075 0.0 0
M  V30 8 C 2.598 -2.0 0.0 0
M  V30 9 C 1.3956 -3.0826 0.0 0
M  V30 10 C 3.4194 -5.4154 0.0 0
M  V30 11 N 3.4641 -1.5 0.0 0
M  V30 12 N 1.732 -1.5 0.0 0
M  V30 13 N 0.9889 -2.1691 0.0 0
M  V30 14 C 0.8956 -3.9487 0.0 0
M  V30 15 C 3.4641 -0.5 0.0 0
M  V30 16 C 1.732 -0.5 0.0 0
M  V30 17 C 2.598 0.0 0.0 0
M  V30 18 C 4.3301 0.0 0.0 0
M  V30 19 N 0.866 0.0 0.0 0
M  V30 20 C 0.0 -0.5 0.0 0
M  V30 21 C -0.866 0.0 0.0 0
M  V30 22 C 0.0 -1.4999 0.0 0
M  V30 23 C -1.732 -0.4999 0.0 0
M  V30 24 C -0.866 -1.9999 0.0 0
M  V30 25 N -1.732 -1.4999 0.0 0
M  V30 END ATOM
M  V30 BEGIN BOND
M  V30 1 1 1 2
M  V30 2 2 2 3
M  V30 3 1 2 4
M  V30 4 1 3 5
M  V30 5 1 3 6
M  V30 6 2 4 7
M  V30 7 2 5 8
M  V30 8 1 5 9
M  V30 9 2 6 10
M  V30 10 1 8 11
M  V30 11 1 8 12
M  V30 12 2 9 13
M  V30 13 1 9 14
M  V30 14 2 11 15
M  V30 15 1 12 16
M  V30 16 1 15 17
M  V30 17 1 15 18
M  V30 18 1 16 19
M  V30 19 1 19 20
M  V30 20 2 20 21
M  V30 21 1 20 22
M  V30 22 1 21 23
M  V30 23 2 22 24
M  V30 24 2 23 25
M  V30 25 1 7 10
M  V30 26 1 12 13
M  V30 27 2 16 17
M  V30 28 1 24 25
M  V30 END BOND
M  V30 END CTAB
M  END
>  <Rack>
PathogenBox_PlateB

>  <Position>
D10

>  <Compound ID>
MMV016136

>  <Disease Set>
MALARIA

>  <Trivial Name>


>  <Total Molecular Weight>
349.82

>  <Molecular Weight Parent Molecule>
349.82

>  <Molecular Formula>
C19H16N5Cl

>  <Salt Name>


>  <Salt Coefficient>


>  <cLogP>
3.50

>  <SMILES>
Cc1cc(Nc2ccncc2)n3nc(C)c(c4ccccc4Cl)c3n1

$$$$
Compound 120
Actelion Java MolfileCreator 2.0

  0  0  0  0  0  0              0 V3000
M  V30 BEGIN CTAB
M  V30 COUNTS 27 31 0 0 0
M  V30 BEGIN ATOM
M  V30 1 N 3.9029 0.0 0.0 0
M  V30 2 C 2.6019 -0.7511 0.0 0
M  V30 3 C 5.2039 -0.7511 0.0 0
M  V30 4 C 2.6019 -2.2533 0.0 0
M  V30 5 C 1.3009 0.0 0.0 0 CFG=1
M  V30 6 C 5.2039 -2.2533 0.0 0
M  V30 7 C 3.9029 -3.0045 0.0 0
M  V30 8 N 1.3009 1.5022 0.0 0
M  V30 9 C 0.0 -0.7511 0.0 0
M  V30 10 C 2.5163 2.3852 0.0 0
M  V30 11 C 0.1093 2.387 0.0 0
M  V30 12 C -1.3723 -0.1401 0.0 0
M  V30 13 C -0.157 -2.2451 0.0 0
M  V30 14 C 2.0521 3.8139 0.0 0
M  V30 15 C 0.5498 3.8139 0.0 0
M  V30 16 N -2.3775 -1.2564 0.0 0
M  V30 17 C -1.6847 1.3293 0.0 0
M  V30 18 C -1.6264 -2.5574 0.0 0
M  V30 19 C 0.8481 -3.3615 0.0 0
M  V30 20 C -0.6157 2.3308 0.0 0
M  V30 21 C -3.1134 1.7935 0.0 0
M  V30 22 C -2.0906 -3.9862 0.0 0
M  V30 23 C 0.3839 -4.7902 0.0 0
M  V30 24 C -0.8806 3.8039 0.0 0
M  V30 25 C -3.4257 3.2629 0.0 0
M  V30 26 C -1.0854 -5.1026 0.0 0
M  V30 27 C -2.3093 4.2681 0.0 0
M  V30 END ATOM
M  V30 BEGIN BOND
M  V30 1 2 1 2
M  V30 2 1 1 3
M  V30 3 1 2 4
M  V30 4 1 5 2
M  V30 5 2 3 6
M  V30 6 2 4 7
M  V30 7 1 5 8 CFG=3
M  V30 8 1 5 9
M  V30 9 1 8 10
M  V30 10 1 8 11
M  V30 11 2 9 12
M  V30 12 1 9 13
M  V30 13 1 10 14
M  V30 14 1 11 15
M  V30 15 1 12 16
M  V30 16 1 12 17
M  V30 17 2 13 18
M  V30 18 1 13 19
M  V30 19 2 17 20
M  V30 20 1 17 21
M  V30 21 1 18 22
M  V30 22 2 19 23
M  V30 23 1 20 24
M  V30 24 2 21 25
M  V30 25 2 22 26
M  V30 26 2 24 27
M  V30 27 1 6 7
M  V30 28 1 14 15
M  V30 29 1 16 18
M  V30 30 1 23 26
M  V30 31 1 25 27
M  V30 END BOND
M  V30 BEGIN COLLECTION
M  V30 MDLV30/STERAC1 ATOMS=(1 5)
M  V30 END COLLECTION
M  V30 END CTAB
M  END
>  <Rack>
PathogenBox_PlateB

>  <Position>
D11

>  <Compound ID>
MMV688762

>  <Disease Set>
SCHISTOSOMIASIS

>  <Trivial Name>


>  <Total Molecular Weight>
353.46

>  <Molecular Weight Parent Molecule>
353.46

>  <Molecular Formula>
C24H23N3

>  <Salt Name>


>  <Salt Coefficient>


>  <cLogP>
4.63

>  <SMILES>
C1CCN(C1)C(c2ccccn2)c3c([nH]c4ccccc34)c5ccccc5

$$$$
Compound 121
Actelion Java MolfileCreator 2.0

  0  0  0  0  0  0              0 V3000
M  V30 BEGIN CTAB
M  V30 COUNTS 25 28 0 0 0
M  V30 BEGIN ATOM
M  V30 1 O 2.598 0.0 0.0 0
M  V30 2 C 1.732 -0.5 0.0 0
M  V30 3 N 0.866 0.0 0.0 0
M  V30 4 C 1.732 -1.5 0.0 0
M  V30 5 C 0.0 -0.5 0.0 0
M  V30 6 C 0.866 -2.0 0.0 0
M  V30 7 C 2.598 -1.9999 0.0 0
M  V30 8 N -0.9135 -0.0932 0.0 0
M  V30 9 C -0.1045 -1.4945 0.0 0
M  V30 10 C 0.866 -3.0 0.0 0
M  V30 11 C 2.598 -2.9999 0.0 0
M  V30 12 N -1.5826 -0.8364 0.0 0
M  V30 13 C -1.0826 -1.7024 0.0 0
M  V30 14 O 0.1228 -3.6691 0.0 0
M  V30 15 C 1.732 -3.4999 0.0 0
M  V30 16 C -2.5771 -0.7318 0.0 0
M  V30 17 C 0.5296 -4.5826 0.0 0
M  V30 18 O 1.5241 -4.4781 0.0 0
M  V30 19 C -3.1649 -1.5408 0.0 0
M  V30 20 C -4.1595 -1.4363 0.0 0
M  V30 21 C -2.7582 -2.4544 0.0 0
M  V30 22 C -4.7472 -2.2453 0.0 0
M  V30 23 C -3.346 -3.2634 0.0 0
M  V30 24 C -4.3405 -3.1589 0.0 0
M  V30 25 C -5.7418 -2.1408 0.0 0
M  V30 END ATOM
M  V30 BEGIN BOND
M  V30 1 2 1 2
M  V30 2 1 2 3
M  V30 3 1 2 4
M  V30 4 1 3 5
M  V30 5 2 4 6
M  V30 6 1 4 7
M  V30 7 2 5 8
M  V30 8 1 5 9
M  V30 9 1 6 10
M  V30 10 2 7 11
M  V30 11 1 8 12
M  V30 12 2 9 13
M  V30 13 1 10 14
M  V30 14 2 10 15
M  V30 15 1 12 16
M  V30 16 1 14 17
M  V30 17 1 15 18
M  V30 18 1 16 19
M  V30 19 2 19 20
M  V30 20 1 19 21
M  V30 21 1 20 22
M  V30 22 2 21 23
M  V30 23 2 22 24
M  V30 24 1 22 25
M  V30 25 1 11 15
M  V30 26 1 12 13
M  V30 27 1 17 18
M  V30 28 1 23 24
M  V30 END BOND
M  V30 END CTAB
M  END
>  <Rack>
PathogenBox_PlateB

>  <Position>
E02

>  <Compound ID>
MMV676386

>  <Disease Set>
TUBERCULOSIS

>  <Trivial Name>


>  <Total Molecular Weight>
335.36

>  <Molecular Weight Parent Molecule>
335.36

>  <Molecular Formula>
C19H17N3O3

>  <Salt Name>


>  <Salt Coefficient>


>  <cLogP>
3.03

>  <SMILES>
Cc1cccc(Cn2ccc(NC(=O)c3ccc4OCOc4c3)n2)c1

$$$$
Compound 122
Actelion Java MolfileCreator 2.0

  0  0  0  0  0  0              0 V3000
M  V30 BEGIN CTAB
M  V30 COUNTS 19 20 0 0 0
M  V30 BEGIN ATOM
M  V30 1 O 4.7084 -2.054 0.0 0
M  V30 2 N 5.4515 -1.3848 0.0 0 CHG=1
M  V30 3 O 6.4026 -1.6939 0.0 0 CHG=-1
M  V30 4 C 5.2436 -0.4067 0.0 0
M  V30 5 N 5.9128 0.3364 0.0 0
M  V30 6 N 4.3301 0.0 0.0 0
M  V30 7 C 5.4128 1.2024 0.0 0
M  V30 8 C 4.4346 0.9945 0.0 0
M  V30 9 C 3.4641 -0.5 0.0 0
M  V30 10 C 2.598 0.0 0.0 0
M  V30 11 O 2.598 1.0 0.0 0
M  V30 12 N 1.732 -0.5 0.0 0
M  V30 13 C 0.866 0.0 0.0 0
M  V30 14 C 0.0 -0.5 0.0 0
M  V30 15 C -0.866 0.0 0.0 0
M  V30 16 C 0.0 -1.4999 0.0 0
M  V30 17 C -1.732 -0.4999 0.0 0
M  V30 18 C -0.866 -1.9999 0.0 0
M  V30 19 C -1.732 -1.4999 0.0 0
M  V30 END ATOM
M  V30 BEGIN BOND
M  V30 1 2 1 2
M  V30 2 1 2 3
M  V30 3 1 2 4
M  V30 4 2 4 5
M  V30 5 1 4 6
M  V30 6 1 5 7
M  V30 7 1 6 8
M  V30 8 1 6 9
M  V30 9 1 9 10
M  V30 10 2 10 11
M  V30 11 1 10 12
M  V30 12 1 12 13
M  V30 13 1 13 14
M  V30 14 2 14 15
M  V30 15 1 14 16
M  V30 16 1 15 17
M  V30 17 2 16 18
M  V30 18 2 17 19
M  V30 19 2 7 8
M  V30 20 1 18 19
M  V30 END BOND
M  V30 END CTAB
M  END
>  <Rack>
PathogenBox_PlateB

>  <Position>
E03

>  <Compound ID>
MMV688773

>  <Disease Set>
REFERENCE COMPOUNDS

>  <Trivial Name>
Benznidazole

>  <Total Molecular Weight>
260.25

>  <Molecular Weight Parent Molecule>
260.25

>  <Molecular Formula>
C12H12N4O3

>  <Salt Name>


>  <Salt Coefficient>


>  <cLogP>
-0.25

>  <SMILES>
[O-][N+](=O)c1nccn1CC(=O)NCc2ccccc2

$$$$
Compound 123
Actelion Java MolfileCreator 2.0

  0  0  0  0  0  0              0 V3000
M  V30 BEGIN CTAB
M  V30 COUNTS 32 35 0 0 0
M  V30 BEGIN ATOM
M  V30 1 O 2.598 -4.9999 0.0 0
M  V30 2 C 3.4641 -4.5 0.0 0
M  V30 3 C 4.3301 -5.0 0.0 0
M  V30 4 C 3.4641 -3.5 0.0 0
M  V30 5 C 4.3301 -6.0 0.0 0
M  V30 6 C 5.1961 -4.5 0.0 0
M  V30 7 C 2.598 -3.0 0.0 0
M  V30 8 C 4.3301 -3.0 0.0 0 CFG=1
M  V30 9 O 3.4641 -6.4999 0.0 0
M  V30 10 C 5.1961 -6.5 0.0 0
M  V30 11 C 6.0621 -5.0 0.0 0
M  V30 12 C 5.1961 -3.5 0.0 0 CFG=1
M  V30 13 O 1.732 -3.4999 0.0 0
M  V30 14 C 2.598 -2.0 0.0 0 CFG=2
M  V30 15 C 4.3301 -2.0 0.0 0 CFG=1
M  V30 16 C 6.0621 -6.0 0.0 0
M  V30 17 C 6.0621 -3.0 0.0 0
M  V30 18 O 1.732 -2.5 0.0 0
M  V30 19 C 1.732 -1.5 0.0 0
M  V30 20 C 3.4641 -1.5 0.0 0 CFG=1
M  V30 21 O 5.1961 -1.5 0.0 0
M  V30 22 O 0.866 -1.9999 0.0 0
M  V30 23 C 1.732 -0.5 0.0 0
M  V30 24 C 3.4641 -0.5 0.0 0 CFG=1
M  V30 25 C 2.598 0.0 0.0 0
M  V30 26 C 0.866 0.0 0.0 0
M  V30 27 N 4.3301 0.0 0.0 0
M  V30 28 O 2.598 1.0 0.0 0
M  V30 29 O 0.866 1.0 0.0 0
M  V30 30 N 0.0 -0.5 0.0 0
M  V30 31 C 5.1961 -0.5 0.0 0
M  V30 32 C 4.3301 0.9999 0.0 0
M  V30 END ATOM
M  V30 BEGIN BOND
M  V30 1 2 1 2
M  V30 2 1 2 3
M  V30 3 1 2 4
M  V30 4 2 3 5
M  V30 5 1 3 6
M  V30 6 2 4 7
M  V30 7 1 8 4 CFG=3
M  V30 8 1 5 9
M  V30 9 1 5 10
M  V30 10 2 6 11
M  V30 11 1 12 6
M  V30 12 1 7 13
M  V30 13 1 14 7
M  V30 14 1 15 8
M  V30 15 2 10 16
M  V30 16 1 12 17 CFG=1
M  V30 17 1 14 18 CFG=1
M  V30 18 1 14 19
M  V30 19 1 20 14
M  V30 20 1 15 21 CFG=1
M  V30 21 2 19 22
M  V30 22 1 19 23
M  V30 23 1 20 24 CFG=3
M  V30 24 2 23 25
M  V30 25 1 23 26
M  V30 26 1 24 27 CFG=1
M  V30 27 1 25 28
M  V30 28 2 26 29
M  V30 29 1 26 30
M  V30 30 1 27 31
M  V30 31 1 27 32
M  V30 32 1 8 12
M  V30 33 1 11 16
M  V30 34 1 20 15
M  V30 35 1 24 25
M  V30 END BOND
M  V30 BEGIN COLLECTION
M  V30 MDLV30/STEABS ATOMS=(6 8 12 14 15 20 24)
M  V30 END COLLECTION
M  V30 END CTAB
M  END
>  <Rack>
PathogenBox_PlateB

>  <Position>
E04

>  <Compound ID>
MMV000011

>  <Disease Set>
REFERENCE COMPOUNDS

>  <Trivial Name>
Doxycycline

>  <Total Molecular Weight>
480.90

>  <Molecular Weight Parent Molecule>
444.44

>  <Molecular Formula>
C22H24N2O8

>  <Salt Name>
Hydrochloride

>  <Salt Coefficient>
1

>  <cLogP>
-1.17

>  <SMILES>
C[C@@H]1[C@H]2[C@H](O)[C@H]3[C@H](N(C)C)C(=C(C(=O)N)C(=O)[C@@]3(O)C(=C2C(=O)c4c(O)cccc14)O)O

$$$$
Compound 124
Actelion Java MolfileCreator 2.0

  0  0  0  0  0  0              0 V3000
M  V30 BEGIN CTAB
M  V30 COUNTS 30 33 0 0 0
M  V30 BEGIN ATOM
M  V30 1 Cl 3.4641 -0.5 0.0 0
M  V30 2 C 2.598 0.0 0.0 0
M  V30 3 C 2.598 0.9999 0.0 0
M  V30 4 C 1.7462 -0.5089 0.0 0
M  V30 5 F 3.4641 1.4999 0.0 0
M  V30 6 C 1.732 1.4999 0.0 0
M  V30 7 C 0.866 0.0 0.0 0
M  V30 8 Cl 1.732 2.4999 0.0 0
M  V30 9 C 0.866 1.0 0.0 0
M  V30 10 C 0.0 -0.5 0.0 0 CFG=1
M  V30 11 O -0.9135 -0.0932 0.0 0
M  V30 12 C 0.8386 -1.0446 0.0 0
M  V30 13 C -0.1045 -1.4945 0.0 0
M  V30 14 N -1.5826 -0.8364 0.0 0
M  V30 15 F 1.4273 -0.108 0.0 0
M  V30 16 F 1.6773 -1.5892 0.0 0
M  V30 17 F 0.294 -1.8833 0.0 0
M  V30 18 C -1.0826 -1.7024 0.0 0
M  V30 19 C -1.4894 -2.6159 0.0 0
M  V30 20 C -0.9016 -3.4249 0.0 0
M  V30 21 C -2.4839 -2.7205 0.0 0
M  V30 22 C -1.3083 -4.3385 0.0 0
M  V30 23 C -2.8906 -3.634 0.0 0
M  V30 24 C -2.3028 -4.443 0.0 0
M  V30 25 C -0.9016 -5.252 0.0 0
M  V30 26 B -2.5107 -5.4212 0.0 0
M  V30 27 O -1.6447 -5.9212 0.0 0
M  V30 28 C -0.1585 -5.9212 0.0 0
M  V30 29 C 0.0494 -4.943 0.0 0
M  V30 30 O -3.4243 -5.8279 0.0 0
M  V30 END ATOM
M  V30 BEGIN BOND
M  V30 1 1 1 2
M  V30 2 2 2 3
M  V30 3 1 2 4
M  V30 4 1 3 5
M  V30 5 1 3 6
M  V30 6 2 4 7
M  V30 7 1 6 8
M  V30 8 2 6 9
M  V30 9 1 10 7 CFG=1
M  V30 10 1 10 11
M  V30 11 1 10 12
M  V30 12 1 10 13
M  V30 13 1 11 14
M  V30 14 1 12 15
M  V30 15 1 12 16
M  V30 16 1 12 17
M  V30 17 1 13 18
M  V30 18 1 18 19
M  V30 19 2 19 20
M  V30 20 1 19 21
M  V30 21 1 20 22
M  V30 22 2 21 23
M  V30 23 2 22 24
M  V30 24 1 22 25
M  V30 25 1 24 26
M  V30 26 1 25 27
M  V30 27 1 25 28
M  V30 28 1 25 29
M  V30 29 1 26 30
M  V30 30 1 7 9
M  V30 31 2 14 18
M  V30 32 1 23 24
M  V30 33 1 26 27
M  V30 END BOND
M  V30 BEGIN COLLECTION
M  V30 MDLV30/STERAC1 ATOMS=(1 10)
M  V30 END COLLECTION
M  V30 END CTAB
M  END
>  <Rack>
PathogenBox_PlateB

>  <Position>
E05

>  <Compound ID>
MMV687775

>  <Disease Set>
LYMPHATIC FILARIASIS

>  <Trivial Name>


>  <Total Molecular Weight>
462.03

>  <Molecular Weight Parent Molecule>
462.03

>  <Molecular Formula>
C19H14NO3BCl2F4

>  <Salt Name>


>  <Salt Coefficient>


>  <cLogP>
6.51

>  <SMILES>
CC1(C)OB(O)c2ccc(cc12)C3=NOC(C3)(c4cc(Cl)c(F)c(Cl)c4)C(F)(F)F

$$$$
Compound 125
Actelion Java MolfileCreator 2.0

  0  0  0  0  0  0              0 V3000
M  V30 BEGIN CTAB
M  V30 COUNTS 13 14 0 0 0
M  V30 BEGIN ATOM
M  V30 1 I 0.866 0.0 0.0 0
M  V30 2 C 0.0 -0.5 0.0 0
M  V30 3 C -0.866 0.0 0.0 0
M  V30 4 C 0.0 -1.4999 0.0 0
M  V30 5 O -0.866 1.0 0.0 0
M  V30 6 C -1.732 -0.4999 0.0 0
M  V30 7 C -0.866 -1.9999 0.0 0
M  V30 8 N -2.598 0.0 0.0 0
M  V30 9 C -1.732 -1.4999 0.0 0
M  V30 10 I -0.866 -2.9999 0.0 0
M  V30 11 C -3.4641 -0.4999 0.0 0
M  V30 12 C -2.598 -1.9999 0.0 0
M  V30 13 C -3.4641 -1.4999 0.0 0
M  V30 END ATOM
M  V30 BEGIN BOND
M  V30 1 1 1 2
M  V30 2 2 2 3
M  V30 3 1 2 4
M  V30 4 1 3 5
M  V30 5 1 3 6
M  V30 6 2 4 7
M  V30 7 2 6 8
M  V30 8 1 6 9
M  V30 9 1 7 10
M  V30 10 1 8 11
M  V30 11 2 9 12
M  V30 12 2 11 13
M  V30 13 1 7 9
M  V30 14 1 12 13
M  V30 END BOND
M  V30 END CTAB
M  END
>  <Rack>
PathogenBox_PlateB

>  <Position>
E06

>  <Compound ID>
MMV002817

>  <Disease Set>
ONCHOCERCIASIS

>  <Trivial Name>
Iodoquinol

>  <Total Molecular Weight>
396.95

>  <Molecular Weight Parent Molecule>
396.95

>  <Molecular Formula>
C9H5NOI2

>  <Salt Name>


>  <Salt Coefficient>


>  <cLogP>
2.50

>  <SMILES>
Oc1c(I)cc(I)c2cccnc12

$$$$
Compound 126
Actelion Java MolfileCreator 2.0

  0  0  0  0  0  0              0 V3000
M  V30 BEGIN CTAB
M  V30 COUNTS 31 34 0 0 0
M  V30 BEGIN ATOM
M  V30 1 O 3.4641 -0.5 0.0 0
M  V30 2 C 2.598 0.0 0.0 0
M  V30 3 N 1.732 -0.5 0.0 0
M  V30 4 C 2.598 1.0 0.0 0
M  V30 5 C 0.866 0.0 0.0 0
M  V30 6 C 3.4641 1.5 0.0 0
M  V30 7 C 1.732 1.4999 0.0 0
M  V30 8 C 0.0 -0.5 0.0 0 CFG=1
M  V30 9 N 3.4641 2.5 0.0 0
M  V30 10 C 1.732 2.5 0.0 0
M  V30 11 C -0.866 0.0 0.0 0
M  V30 12 C 0.0 -1.4999 0.0 0
M  V30 13 C 2.598 3.0 0.0 0
M  V30 14 C -1.732 -0.4999 0.0 0
M  V30 15 C -0.866 -1.9999 0.0 0
M  V30 16 C -1.732 -1.4999 0.0 0 CFG=1
M  V30 17 C -2.598 -1.9999 0.0 0
M  V30 18 N -3.4641 -1.4999 0.0 0
M  V30 19 C -2.598 -2.9999 0.0 0
M  V30 20 C -4.3301 -1.9999 0.0 0
M  V30 21 C -1.732 -3.4999 0.0 0
M  V30 22 C -3.4641 -3.4999 0.0 0
M  V30 23 N -4.3301 -2.9999 0.0 0
M  V30 24 C -5.1961 -1.4999 0.0 0
M  V30 25 C -1.732 -4.4999 0.0 0
M  V30 26 C -0.866 -3.0 0.0 0
M  V30 27 C -5.1961 -0.4999 0.0 0
M  V30 28 C -6.0621 -1.9999 0.0 0
M  V30 29 C -0.866 -5.0 0.0 0
M  V30 30 C 0.0 -3.5 0.0 0
M  V30 31 N 0.0 -4.5 0.0 0
M  V30 END ATOM
M  V30 BEGIN BOND
M  V30 1 2 1 2
M  V30 2 1 2 3
M  V30 3 1 2 4
M  V30 4 1 3 5
M  V30 5 2 4 6
M  V30 6 1 4 7
M  V30 7 1 8 5 CFG=3
M  V30 8 1 6 9
M  V30 9 2 7 10
M  V30 10 1 8 11
M  V30 11 1 8 12
M  V30 12 2 9 13
M  V30 13 1 11 14
M  V30 14 1 12 15
M  V30 15 1 16 14
M  V30 16 1 16 17 CFG=1
M  V30 17 2 17 18
M  V30 18 1 17 19
M  V30 19 1 18 20
M  V30 20 1 19 21
M  V30 21 2 19 22
M  V30 22 2 20 23
M  V30 23 1 20 24
M  V30 24 2 21 25
M  V30 25 1 21 26
M  V30 26 1 24 27
M  V30 27 1 24 28
M  V30 28 1 25 29
M  V30 29 2 26 30
M  V30 30 2 29 31
M  V30 31 1 10 13
M  V30 32 1 15 16
M  V30 33 1 22 23
M  V30 34 1 30 31
M  V30 END BOND
M  V30 BEGIN COLLECTION
M  V30 MDLV30/STEABS ATOMS=(2 8 16)
M  V30 END COLLECTION
M  V30 END CTAB
M  END
>  <Rack>
PathogenBox_PlateB

>  <Position>
E07

>  <Compound ID>
MMV676442

>  <Disease Set>
MALARIA

>  <Trivial Name>


>  <Total Molecular Weight>
415.53

>  <Molecular Weight Parent Molecule>
415.53

>  <Molecular Formula>
C25H29N5O

>  <Salt Name>


>  <Salt Coefficient>


>  <cLogP>
3.82

>  <SMILES>
CC(C)c1ncc(c2ccncc2)c(n1)[C@@H]3CC[C@@H](CNC(=O)c4cccnc4)CC3

$$$$
Compound 127
Actelion Java MolfileCreator 2.0

  0  0  0  0  0  0              0 V3000
M  V30 BEGIN CTAB
M  V30 COUNTS 21 23 0 0 0
M  V30 BEGIN ATOM
M  V30 1 O 2.598 0.0 0.0 0
M  V30 2 C 1.732 -0.5 0.0 0
M  V30 3 N 0.866 0.0 0.0 0
M  V30 4 C 1.732 -1.5 0.0 0
M  V30 5 C 0.0 -0.5 0.0 0
M  V30 6 N 0.923 -2.0877 0.0 0
M  V30 7 C 2.541 -2.0877 0.0 0
M  V30 8 C -0.866 0.0 0.0 0
M  V30 9 C 0.0 -1.4999 0.0 0
M  V30 10 O 1.232 -3.0388 0.0 0
M  V30 11 C 2.232 -3.0388 0.0 0
M  V30 12 C -1.732 -0.4999 0.0 0
M  V30 13 C -0.866 -1.9999 0.0 0
M  V30 14 C 2.8198 -3.8478 0.0 0
M  V30 15 C -1.732 -1.4999 0.0 0
M  V30 16 C -2.598 -1.9999 0.0 0
M  V30 17 C -3.4641 -1.4999 0.0 0
M  V30 18 C -2.598 -2.9999 0.0 0
M  V30 19 C -4.3301 -1.9999 0.0 0
M  V30 20 C -3.4641 -3.4999 0.0 0
M  V30 21 C -4.3301 -2.9999 0.0 0
M  V30 END ATOM
M  V30 BEGIN BOND
M  V30 1 2 1 2
M  V30 2 1 2 3
M  V30 3 1 2 4
M  V30 4 1 3 5
M  V30 5 2 4 6
M  V30 6 1 4 7
M  V30 7 2 5 8
M  V30 8 1 5 9
M  V30 9 1 6 10
M  V30 10 2 7 11
M  V30 11 1 8 12
M  V30 12 2 9 13
M  V30 13 1 11 14
M  V30 14 2 12 15
M  V30 15 1 15 16
M  V30 16 2 16 17
M  V30 17 1 16 18
M  V30 18 1 17 19
M  V30 19 2 18 20
M  V30 20 2 19 21
M  V30 21 1 10 11
M  V30 22 1 13 15
M  V30 23 1 20 21
M  V30 END BOND
M  V30 END CTAB
M  END
>  <Rack>
PathogenBox_PlateB

>  <Position>
E08

>  <Compound ID>
MMV020152

>  <Disease Set>
MALARIA

>  <Trivial Name>


>  <Total Molecular Weight>
278.31

>  <Molecular Weight Parent Molecule>
278.31

>  <Molecular Formula>
C17H14N2O2

>  <Salt Name>


>  <Salt Coefficient>


>  <cLogP>
3.33

>  <SMILES>
Cc1onc(c1)C(=O)Nc2ccc(cc2)c3ccccc3

$$$$
Compound 128
Actelion Java MolfileCreator 2.0

  0  0  0  0  0  0              0 V3000
M  V30 BEGIN CTAB
M  V30 COUNTS 25 28 0 0 0
M  V30 BEGIN ATOM
M  V30 1 O 3.8971 0.0 0.0 0
M  V30 2 C 2.598 -0.75 0.0 0
M  V30 3 N 1.299 0.0 0.0 0
M  V30 4 C 2.598 -2.25 0.0 0
M  V30 5 C 0.0 -0.75 0.0 0
M  V30 6 C 1.299 -2.9999 0.0 0
M  V30 7 C 3.8971 -3.0 0.0 0
M  V30 8 C -1.5 -0.7499 0.0 0
M  V30 9 C -0.75 -2.049 0.0 0
M  V30 10 N 1.299 -4.4999 0.0 0
M  V30 11 C 3.8971 -4.5 0.0 0
M  V30 12 C 2.598 -5.25 0.0 0
M  V30 13 N 2.598 -6.75 0.0 0
M  V30 14 C 1.299 -7.5 0.0 0
M  V30 15 C 3.8971 -7.5 0.0 0
M  V30 16 C 1.299 -8.9999 0.0 0
M  V30 17 C 3.8971 -9.0 0.0 0
M  V30 18 C 2.598 -9.75 0.0 0
M  V30 19 C 2.598 -11.25 0.0 0
M  V30 20 C 3.8971 -12.0 0.0 0
M  V30 21 C 3.8971 -13.5 0.0 0
M  V30 22 C 5.1961 -11.25 0.0 0
M  V30 23 C 5.1961 -14.25 0.0 0
M  V30 24 C 6.4951 -12.0 0.0 0
M  V30 25 C 6.4951 -13.5 0.0 0
M  V30 END ATOM
M  V30 BEGIN BOND
M  V30 1 2 1 2
M  V30 2 1 2 3
M  V30 3 1 2 4
M  V30 4 1 3 5
M  V30 5 2 4 6
M  V30 6 1 4 7
M  V30 7 1 5 8
M  V30 8 1 5 9
M  V30 9 1 6 10
M  V30 10 2 7 11
M  V30 11 2 10 12
M  V30 12 1 12 13
M  V30 13 1 13 14
M  V30 14 1 13 15
M  V30 15 1 14 16
M  V30 16 1 15 17
M  V30 17 1 16 18
M  V30 18 1 18 19
M  V30 19 1 19 20
M  V30 20 2 20 21
M  V30 21 1 20 22
M  V30 22 1 21 23
M  V30 23 2 22 24
M  V30 24 2 23 25
M  V30 25 1 8 9
M  V30 26 1 11 12
M  V30 27 1 17 18
M  V30 28 1 24 25
M  V30 END BOND
M  V30 END CTAB
M  END
>  <Rack>
PathogenBox_PlateB

>  <Position>
E09

>  <Compound ID>
MMV024397

>  <Disease Set>
MALARIA

>  <Trivial Name>


>  <Total Molecular Weight>
335.45

>  <Molecular Weight Parent Molecule>
335.45

>  <Molecular Formula>
C21H25N3O

>  <Salt Name>


>  <Salt Coefficient>


>  <cLogP>
3.52

>  <SMILES>
O=C(NC1CC1)c2ccc(nc2)N3CCC(Cc4ccccc4)CC3

$$$$
Compound 129
Actelion Java MolfileCreator 2.0

  0  0  0  0  0  0              0 V3000
M  V30 BEGIN CTAB
M  V30 COUNTS 23 26 0 0 0
M  V30 BEGIN ATOM
M  V30 1 Cl 0.866 0.0 0.0 0
M  V30 2 C 0.0 -0.5 0.0 0
M  V30 3 N -0.866 0.0 0.0 0
M  V30 4 C 0.0 -1.4999 0.0 0
M  V30 5 C -1.732 -0.4999 0.0 0
M  V30 6 C -0.866 -1.9999 0.0 0
M  V30 7 C 0.866 -2.0 0.0 0 CFG=2
M  V30 8 C -1.732 -1.4999 0.0 0
M  V30 9 C -2.598 0.0 0.0 0
M  V30 10 N 0.866 -3.0 0.0 0
M  V30 11 N 1.732 -1.5 0.0 0
M  V30 12 C -2.598 -1.9999 0.0 0
M  V30 13 C -3.4641 -0.4999 0.0 0
M  V30 14 C 1.732 -3.5 0.0 0
M  V30 15 C 2.598 -2.0 0.0 0
M  V30 16 C -3.4641 -1.4999 0.0 0
M  V30 17 C -4.3301 0.0 0.0 0
M  V30 18 O 1.732 -4.5 0.0 0
M  V30 19 C 2.598 -3.0 0.0 0
M  V30 20 C 3.4641 -1.5 0.0 0
M  V30 21 C 3.4641 -3.5 0.0 0
M  V30 22 C 4.3301 -2.0 0.0 0
M  V30 23 C 4.3301 -3.0 0.0 0
M  V30 END ATOM
M  V30 BEGIN BOND
M  V30 1 1 1 2
M  V30 2 2 2 3
M  V30 3 1 2 4
M  V30 4 1 3 5
M  V30 5 2 4 6
M  V30 6 1 7 4 CFG=1
M  V30 7 1 5 8
M  V30 8 2 5 9
M  V30 9 1 7 10
M  V30 10 1 7 11
M  V30 11 2 8 12
M  V30 12 1 9 13
M  V30 13 1 10 14
M  V30 14 1 11 15
M  V30 15 1 12 16
M  V30 16 1 13 17
M  V30 17 2 14 18
M  V30 18 1 14 19
M  V30 19 1 15 20
M  V30 20 1 19 21
M  V30 21 2 20 22
M  V30 22 2 21 23
M  V30 23 1 6 8
M  V30 24 2 13 16
M  V30 25 2 15 19
M  V30 26 1 22 23
M  V30 END BOND
M  V30 BEGIN COLLECTION
M  V30 MDLV30/STERAC1 ATOMS=(1 7)
M  V30 END COLLECTION
M  V30 END CTAB
M  END
>  <Rack>
PathogenBox_PlateB

>  <Position>
E10

>  <Compound ID>
MMV019807

>  <Disease Set>
MALARIA

>  <Trivial Name>


>  <Total Molecular Weight>
323.78

>  <Molecular Weight Parent Molecule>
323.78

>  <Molecular Formula>
C18H14N3OCl

>  <Salt Name>


>  <Salt Coefficient>


>  <cLogP>
3.15

>  <SMILES>
Cc1ccc2cc(C3NC(=O)c4ccccc4N3)c(Cl)nc2c1

$$$$
Compound 130
Actelion Java MolfileCreator 2.0

  0  0  0  0  0  0              0 V3000
M  V30 BEGIN CTAB
M  V30 COUNTS 22 25 0 0 0
M  V30 BEGIN ATOM
M  V30 1 N 0.866 1.0 0.0 0
M  V30 2 C 0.866 0.0 0.0 0
M  V30 3 C 1.732 1.4999 0.0 0
M  V30 4 C 0.0 -0.5 0.0 0
M  V30 5 C 1.732 -0.5 0.0 0
M  V30 6 C 2.598 0.9999 0.0 0
M  V30 7 C 1.732 2.4999 0.0 0
M  V30 8 N -0.866 0.0 0.0 0
M  V30 9 C 0.0 -1.4999 0.0 0
M  V30 10 C 2.598 0.0 0.0 0
M  V30 11 C 3.4641 1.4999 0.0 0
M  V30 12 C 2.598 2.9999 0.0 0
M  V30 13 C -1.732 -0.4999 0.0 0
M  V30 14 C -0.866 -1.9999 0.0 0
M  V30 15 N 3.4641 -0.5 0.0 0
M  V30 16 C 3.4641 2.4999 0.0 0
M  V30 17 C -1.732 -1.4999 0.0 0
M  V30 18 C 3.4641 -1.5 0.0 0
M  V30 19 C 4.3301 0.0 0.0 0
M  V30 20 C 4.3301 -2.0 0.0 0
M  V30 21 C 5.1961 -0.5 0.0 0
M  V30 22 C 5.1961 -1.5 0.0 0
M  V30 END ATOM
M  V30 BEGIN BOND
M  V30 1 2 1 2
M  V30 2 1 1 3
M  V30 3 1 2 4
M  V30 4 1 2 5
M  V30 5 1 3 6
M  V30 6 2 3 7
M  V30 7 2 4 8
M  V30 8 1 4 9
M  V30 9 2 5 10
M  V30 10 2 6 11
M  V30 11 1 7 12
M  V30 12 1 8 13
M  V30 13 2 9 14
M  V30 14 1 10 15
M  V30 15 1 11 16
M  V30 16 2 13 17
M  V30 17 1 15 18
M  V30 18 1 15 19
M  V30 19 1 18 20
M  V30 20 1 19 21
M  V30 21 1 20 22
M  V30 22 1 6 10
M  V30 23 2 12 16
M  V30 24 1 14 17
M  V30 25 1 21 22
M  V30 END BOND
M  V30 END CTAB
M  END
>  <Rack>
PathogenBox_PlateB

>  <Position>
E11

>  <Compound ID>
MMV560185

>  <Disease Set>
MALARIA

>  <Trivial Name>


>  <Total Molecular Weight>
289.38

>  <Molecular Weight Parent Molecule>
289.38

>  <Molecular Formula>
C19H19N3

>  <Salt Name>


>  <Salt Coefficient>


>  <cLogP>
3.65

>  <SMILES>
C1CCN(CC1)c2cc(nc3ccccc23)c4ccccn4

$$$$
Compound 131
Actelion Java MolfileCreator 2.0

  0  0  0  0  0  0              0 V3000
M  V30 BEGIN CTAB
M  V30 COUNTS 22 25 0 0 0
M  V30 BEGIN ATOM
M  V30 1 S 0.9705 0.9945 0.0 0
M  V30 2 C 0.866 0.0 0.0 0
M  V30 3 C 1.9487 1.2024 0.0 0 CFG=2
M  V30 4 N 1.7795 -0.4067 0.0 0
M  V30 5 C 0.0 -0.5 0.0 0
M  V30 6 N 2.4487 0.3364 0.0 0
M  V30 7 C 2.9268 1.4103 0.0 0
M  V30 8 C 1.4487 2.0684 0.0 0
M  V30 9 C -0.866 0.0 0.0 0
M  V30 10 C 0.0 -1.4999 0.0 0
M  V30 11 O 3.6699 0.7412 0.0 0
M  V30 12 N 3.0313 2.4048 0.0 0
M  V30 13 C 2.1178 2.8116 0.0 0
M  V30 14 C 0.4705 2.2763 0.0 0
M  V30 15 C -1.732 -0.4999 0.0 0
M  V30 16 C -0.866 -1.9999 0.0 0
M  V30 17 C 1.8088 3.7626 0.0 0
M  V30 18 C 0.1615 3.2274 0.0 0
M  V30 19 C -1.732 -1.4999 0.0 0
M  V30 20 C 0.8306 3.9705 0.0 0
M  V30 21 C 2.4779 4.5058 0.0 0
M  V30 22 C 0.5216 4.9216 0.0 0
M  V30 END ATOM
M  V30 BEGIN BOND
M  V30 1 1 1 2
M  V30 2 1 3 1 CFG=1
M  V30 3 2 2 4
M  V30 4 1 2 5
M  V30 5 1 3 6
M  V30 6 1 3 7
M  V30 7 1 3 8
M  V30 8 2 5 9
M  V30 9 1 5 10
M  V30 10 2 7 11
M  V30 11 1 7 12
M  V30 12 2 8 13
M  V30 13 1 8 14
M  V30 14 1 9 15
M  V30 15 2 10 16
M  V30 16 1 13 17
M  V30 17 2 14 18
M  V30 18 2 15 19
M  V30 19 2 17 20
M  V30 20 1 17 21
M  V30 21 1 20 22
M  V30 22 1 4 6
M  V30 23 1 12 13
M  V30 24 1 16 19
M  V30 25 1 18 20
M  V30 END BOND
M  V30 BEGIN COLLECTION
M  V30 MDLV30/STERAC1 ATOMS=(1 3)
M  V30 END COLLECTION
M  V30 END CTAB
M  END
>  <Rack>
PathogenBox_PlateB

>  <Position>
F02

>  <Compound ID>
MMV019189

>  <Disease Set>
MALARIA

>  <Trivial Name>


>  <Total Molecular Weight>
309.39

>  <Molecular Weight Parent Molecule>
309.39

>  <Molecular Formula>
C17H15N3OS

>  <Salt Name>


>  <Salt Coefficient>


>  <cLogP>
3.88

>  <SMILES>
Cc1ccc2c(NC(=O)C23NN=C(S3)c4ccccc4)c1C

$$$$
Compound 132
Actelion Java MolfileCreator 2.0

  0  0  0  0  0  0              0 V3000
M  V30 BEGIN CTAB
M  V30 COUNTS 51 57 0 0 0
M  V30 BEGIN ATOM
M  V30 1 F 15.7024 -19.9517 0.0 0
M  V30 2 C 15.7809 -21.4496 0.0 0
M  V30 3 C 14.5229 -22.2666 0.0 0
M  V30 4 C 17.1174 -22.1306 0.0 0
M  V30 5 C 14.6014 -23.7645 0.0 0
M  V30 6 C 13.1864 -21.5856 0.0 0 CFG=2
M  V30 7 C 17.1959 -23.6285 0.0 0
M  V30 8 C 15.9379 -24.4455 0.0 0
M  V30 9 O 14.3999 -20.7039 0.0 0
M  V30 10 C 11.9729 -20.7039 0.0 0
M  V30 11 C 13.1864 -23.0856 0.0 0
M  V30 12 F 18.5324 -24.3095 0.0 0
M  V30 13 C 13.9364 -19.2773 0.0 0
M  V30 14 C 12.4364 -19.2773 0.0 0 CFG=1
M  V30 15 N 11.8873 -23.8356 0.0 0
M  V30 16 C 11.5547 -18.0638 0.0 0
M  V30 17 N 10.517 -23.2255 0.0 0
M  V30 18 C 11.7305 -25.3274 0.0 0
M  V30 19 O 12.1648 -16.6935 0.0 0
M  V30 20 C 9.5133 -24.3402 0.0 0
M  V30 21 N 10.2633 -25.6392 0.0 0
M  V30 22 C 11.2831 -15.4799 0.0 0
M  V30 23 C 11.8932 -14.1096 0.0 0
M  V30 24 C 9.7913 -15.6367 0.0 0
M  V30 25 C 11.0116 -12.8961 0.0 0
M  V30 26 C 8.9097 -14.4232 0.0 0
M  V30 27 C 9.5198 -13.0529 0.0 0
M  V30 28 N 8.6381 -11.8394 0.0 0
M  V30 29 C 9.2482 -10.469 0.0 0
M  V30 30 C 7.1463 -11.9962 0.0 0
M  V30 31 C 8.3665 -9.2555 0.0 0
M  V30 32 C 6.2646 -10.7826 0.0 0
M  V30 33 N 6.8747 -9.4123 0.0 0
M  V30 34 C 5.9931 -8.1988 0.0 0
M  V30 35 C 6.6032 -6.8285 0.0 0
M  V30 36 C 4.5013 -8.3556 0.0 0
M  V30 37 C 5.7215 -5.6149 0.0 0
M  V30 38 C 3.6196 -7.1421 0.0 0
M  V30 39 C 4.2297 -5.7717 0.0 0
M  V30 40 N 3.348 -4.5582 0.0 0
M  V30 41 C 3.8116 -3.1316 0.0 0
M  V30 42 C 1.848 -4.5582 0.0 0
M  V30 43 O 5.2381 -2.6681 0.0 0
M  V30 44 N 2.598 -2.25 0.0 0
M  V30 45 N 1.3845 -3.1316 0.0 0
M  V30 46 C 2.598 -0.75 0.0 0 CFG=2
M  V30 47 C 3.8971 0.0 0.0 0 CFG=1
M  V30 48 C 1.299 0.0 0.0 0
M  V30 49 O 5.1961 -0.75 0.0 0
M  V30 50 C 3.8971 1.5 0.0 0
M  V30 51 C 0.0 -0.75 0.0 0
M  V30 END ATOM
M  V30 BEGIN BOND
M  V30 1 1 1 2
M  V30 2 2 2 3
M  V30 3 1 2 4
M  V30 4 1 3 5
M  V30 5 1 6 3
M  V30 6 2 4 7
M  V30 7 2 5 8
M  V30 8 1 6 9
M  V30 9 1 6 10
M  V30 10 1 6 11 CFG=3
M  V30 11 1 7 12
M  V30 12 1 9 13
M  V30 13 1 14 10
M  V30 14 1 11 15
M  V30 15 1 14 16 CFG=3
M  V30 16 1 15 17
M  V30 17 1 15 18
M  V30 18 1 16 19
M  V30 19 2 17 20
M  V30 20 2 18 21
M  V30 21 1 19 22
M  V30 22 2 22 23
M  V30 23 1 22 24
M  V30 24 1 23 25
M  V30 25 2 24 26
M  V30 26 2 25 27
M  V30 27 1 27 28
M  V30 28 1 28 29
M  V30 29 1 28 30
M  V30 30 1 29 31
M  V30 31 1 30 32
M  V30 32 1 31 33
M  V30 33 1 33 34
M  V30 34 2 34 35
M  V30 35 1 34 36
M  V30 36 1 35 37
M  V30 37 2 36 38
M  V30 38 2 37 39
M  V30 39 1 39 40
M  V30 40 1 40 41
M  V30 41 1 40 42
M  V30 42 2 41 43
M  V30 43 1 41 44
M  V30 44 2 42 45
M  V30 45 1 46 44 CFG=1
M  V30 46 1 47 46
M  V30 47 1 46 48
M  V30 48 1 47 49 CFG=3
M  V30 49 1 47 50
M  V30 50 1 48 51
M  V30 51 1 7 8
M  V30 52 1 13 14
M  V30 53 1 20 21
M  V30 54 1 26 27
M  V30 55 1 32 33
M  V30 56 1 38 39
M  V30 57 1 44 45
M  V30 END BOND
M  V30 BEGIN COLLECTION
M  V30 MDLV30/STEABS ATOMS=(4 6 14 46 47)
M  V30 END COLLECTION
M  V30 END CTAB
M  END
>  <Rack>
PathogenBox_PlateB

>  <Position>
F03

>  <Compound ID>
MMV688774

>  <Disease Set>
REFERENCE COMPOUNDS

>  <Trivial Name>
Posaconazole

>  <Total Molecular Weight>
700.78

>  <Molecular Weight Parent Molecule>
700.78

>  <Molecular Formula>
C37H42N8O4F2

>  <Salt Name>


>  <Salt Coefficient>


>  <cLogP>
4.23

>  <SMILES>
CC[C@@H]([C@H](C)O)N1N=CN(C1=O)c2ccc(cc2)N3CCN(CC3)c4ccc(OC[C@@H]5CO[C@](Cn6cncn6)(C5)c7ccc(F)cc7F)cc4

$$$$
Compound 133
Actelion Java MolfileCreator 2.0

  0  0  0  0  0  0              0 V3000
M  V30 BEGIN CTAB
M  V30 COUNTS 11 12 0 0 0
M  V30 BEGIN ATOM
M  V30 1 Cl 3.9487 2.9344 0.0 0
M  V30 2 C 3.4487 2.0684 0.0 0
M  V30 3 C 2.4487 2.0684 0.0 0
M  V30 4 C 3.9487 1.2024 0.0 0
M  V30 5 C 1.9487 1.2024 0.0 0
M  V30 6 C 3.4487 0.3364 0.0 0
M  V30 7 N 0.9705 0.9945 0.0 0
M  V30 8 C 2.4487 0.3364 0.0 0
M  V30 9 C 0.866 0.0 0.0 0
M  V30 10 O 1.7795 -0.4067 0.0 0
M  V30 11 N 0.0 -0.5 0.0 0
M  V30 END ATOM
M  V30 BEGIN BOND
M  V30 1 1 1 2
M  V30 2 2 2 3
M  V30 3 1 2 4
M  V30 4 1 3 5
M  V30 5 2 4 6
M  V30 6 1 5 7
M  V30 7 2 5 8
M  V30 8 2 7 9
M  V30 9 1 8 10
M  V30 10 1 9 11
M  V30 11 1 6 8
M  V30 12 1 9 10
M  V30 END BOND
M  V30 END CTAB
M  END
>  <Rack>
PathogenBox_PlateB

>  <Position>
F04

>  <Compound ID>
MMV003270 

>  <Disease Set>
HOOKWORM

>  <Trivial Name>
Zoxazolamine

>  <Total Molecular Weight>
168.58

>  <Molecular Weight Parent Molecule>
168.58

>  <Molecular Formula>
C7H5N2OCl

>  <Salt Name>


>  <Salt Coefficient>


>  <cLogP>
1.97

>  <SMILES>
ClC1=CC(N=C(N)O2)=C2C=C1

$$$$
Compound 134
Actelion Java MolfileCreator 2.0

  0  0  0  0  0  0              0 V3000
M  V30 BEGIN CTAB
M  V30 COUNTS 24 26 0 0 0
M  V30 BEGIN ATOM
M  V30 1 Cl 6.9282 1.4999 0.0 0
M  V30 2 C 6.0621 0.9999 0.0 0
M  V30 3 C 5.1961 1.4999 0.0 0
M  V30 4 C 6.0621 0.0 0.0 0
M  V30 5 C 4.3301 0.9999 0.0 0
M  V30 6 C 5.1961 -0.5 0.0 0
M  V30 7 C 4.3301 0.0 0.0 0
M  V30 8 C 3.4641 -0.5 0.0 0 CFG=2
M  V30 9 O 2.598 0.0 0.0 0
M  V30 10 C 3.4641 -1.5 0.0 0
M  V30 11 C 3.4641 0.5 0.0 0
M  V30 12 C 1.732 -0.5 0.0 0
M  V30 13 C 2.598 -2.0 0.0 0
M  V30 14 C 4.3301 -1.9999 0.0 0
M  V30 15 C 0.866 0.0 0.0 0
M  V30 16 C 2.598 -3.0 0.0 0
M  V30 17 C 4.3301 -2.9999 0.0 0
M  V30 18 C 0.0 -0.5 0.0 0
M  V30 19 C 3.4641 -3.4999 0.0 0
M  V30 20 N -0.9135 -0.0932 0.0 0
M  V30 21 C -0.1045 -1.4945 0.0 0
M  V30 22 C -1.5826 -0.8364 0.0 0
M  V30 23 C -1.1214 0.8848 0.0 0
M  V30 24 C -1.0826 -1.7024 0.0 0
M  V30 END ATOM
M  V30 BEGIN BOND
M  V30 1 1 1 2
M  V30 2 2 2 3
M  V30 3 1 2 4
M  V30 4 1 3 5
M  V30 5 2 4 6
M  V30 6 2 5 7
M  V30 7 1 8 7
M  V30 8 1 8 9
M  V30 9 1 8 10
M  V30 10 1 8 11 CFG=3
M  V30 11 1 9 12
M  V30 12 2 10 13
M  V30 13 1 10 14
M  V30 14 1 12 15
M  V30 15 1 13 16
M  V30 16 2 14 17
M  V30 17 1 15 18
M  V30 18 2 16 19
M  V30 19 1 18 20
M  V30 20 1 18 21
M  V30 21 1 20 22
M  V30 22 1 20 23
M  V30 23 1 21 24
M  V30 24 1 6 7
M  V30 25 1 17 19
M  V30 26 1 22 24
M  V30 END BOND
M  V30 BEGIN COLLECTION
M  V30 MDLV30/STEABS ATOMS=(1 8)
M  V30 END COLLECTION
M  V30 END CTAB
M  END
>  <Rack>
PathogenBox_PlateB

>  <Position>
F05

>  <Compound ID>
MMV637229

>  <Disease Set>
TRICHURIASIS

>  <Trivial Name>
Clemastine

>  <Total Molecular Weight>
459.97

>  <Molecular Weight Parent Molecule>
343.90

>  <Molecular Formula>
C21H26NOCl

>  <Salt Name>
Fumaric Acid

>  <Salt Coefficient>
1

>  <cLogP>
4.60

>  <SMILES>
ClC1=CC=C([C@@](C)(C2=CC=CC=C2)OCCC3N(C)CCC3)C=C1

$$$$
Compound 135
Actelion Java MolfileCreator 2.0

  0  0  0  0  0  0              0 V3000
M  V30 BEGIN CTAB
M  V30 COUNTS 26 28 0 0 0
M  V30 BEGIN ATOM
M  V30 1 O 9.6607 1.4189 0.0 0
M  V30 2 C 10.7754 2.4226 0.0 0
M  V30 3 N 12.202 1.9591 0.0 0
M  V30 4 C 10.4635 3.8898 0.0 0
M  V30 5 C 11.4672 5.0046 0.0 0
M  V30 6 C 9.0932 4.5 0.0 0
M  V30 7 N 10.7172 6.3036 0.0 0
M  V30 8 N 12.959 4.8478 0.0 0
M  V30 9 N 9.25 5.9917 0.0 0
M  V30 10 C 7.7942 3.75 0.0 0
M  V30 11 C 11.3273 7.6739 0.0 0
M  V30 12 C 6.4951 4.5 0.0 0
M  V30 13 C 7.7942 2.25 0.0 0
M  V30 14 C 9.957 8.284 0.0 0
M  V30 15 C 11.9374 9.0442 0.0 0
M  V30 16 C 12.6977 7.0638 0.0 0
M  V30 17 N 5.1961 3.75 0.0 0
M  V30 18 C 6.4951 1.5 0.0 0
M  V30 19 C 5.1961 2.25 0.0 0
M  V30 20 C 6.4951 0.0 0.0 0
M  V30 21 C 3.8971 1.5 0.0 0
M  V30 22 C 5.1961 -0.7499 0.0 0
M  V30 23 C 3.8971 0.0 0.0 0
M  V30 24 O 2.598 -0.75 0.0 0
M  V30 25 C 1.299 0.0 0.0 0
M  V30 26 C 0.0 -0.75 0.0 0
M  V30 END ATOM
M  V30 BEGIN BOND
M  V30 1 2 1 2
M  V30 2 1 2 3
M  V30 3 1 2 4
M  V30 4 2 4 5
M  V30 5 1 4 6
M  V30 6 1 5 7
M  V30 7 1 5 8
M  V30 8 2 6 9
M  V30 9 1 6 10
M  V30 10 1 7 11
M  V30 11 1 10 12
M  V30 12 2 10 13
M  V30 13 1 11 14
M  V30 14 1 11 15
M  V30 15 1 11 16
M  V30 16 2 12 17
M  V30 17 1 13 18
M  V30 18 1 17 19
M  V30 19 2 18 20
M  V30 20 2 19 21
M  V30 21 1 20 22
M  V30 22 1 21 23
M  V30 23 1 23 24
M  V30 24 1 24 25
M  V30 25 1 25 26
M  V30 26 1 7 9
M  V30 27 1 18 19
M  V30 28 2 22 23
M  V30 END BOND
M  V30 END CTAB
M  END
>  <Rack>
PathogenBox_PlateB

>  <Position>
F06

>  <Compound ID>
MMV688853

>  <Disease Set>
CRYPTOSPORIDIOSIS

>  <Trivial Name>


>  <Total Molecular Weight>
389.88

>  <Molecular Weight Parent Molecule>
353.42

>  <Molecular Formula>
C19H23N5O2

>  <Salt Name>
Hydrochloride

>  <Salt Coefficient>
1

>  <cLogP>
1.75

>  <SMILES>
CCOc1ccc2cc(cnc2c1)c3nn(c(N)c3C(=O)N)C(C)(C)C

$$$$
Compound 136
Actelion Java MolfileCreator 2.0

  0  0  0  0  0  0              0 V3000
M  V30 BEGIN CTAB
M  V30 COUNTS 26 27 0 0 0
M  V30 BEGIN ATOM
M  V30 1 Cl 6.0621 1.0 0.0 0
M  V30 2 C 6.0621 0.0 0.0 0
M  V30 3 C 5.1961 -0.5 0.0 0
M  V30 4 C 6.9282 -0.4999 0.0 0
M  V30 5 N 4.3301 0.0 0.0 0
M  V30 6 C 5.1961 -1.4999 0.0 0
M  V30 7 C 6.9282 -1.4999 0.0 0
M  V30 8 C 3.4641 -0.5 0.0 0
M  V30 9 C 6.0621 -1.9999 0.0 0
M  V30 10 O 3.4641 -1.5 0.0 0
M  V30 11 C 2.598 0.0 0.0 0
M  V30 12 C 6.0621 -2.9999 0.0 0
M  V30 13 N 1.732 -0.5 0.0 0
M  V30 14 F 7.0621 -2.9999 0.0 0
M  V30 15 F 6.0621 -3.9999 0.0 0
M  V30 16 F 5.0621 -2.9999 0.0 0
M  V30 17 C 0.866 0.0 0.0 0 CFG=2
M  V30 18 C 0.866 1.0 0.0 0
M  V30 19 C 0.0 -0.5 0.0 0
M  V30 20 C 1.732 1.5 0.0 0
M  V30 21 C 0.0 1.4999 0.0 0
M  V30 22 O 2.598 0.9999 0.0 0
M  V30 23 C 1.732 2.5 0.0 0
M  V30 24 C 0.0 2.4999 0.0 0
M  V30 25 C 3.4641 1.4999 0.0 0
M  V30 26 C 0.866 2.9999 0.0 0
M  V30 END ATOM
M  V30 BEGIN BOND
M  V30 1 1 1 2
M  V30 2 2 2 3
M  V30 3 1 2 4
M  V30 4 1 3 5
M  V30 5 1 3 6
M  V30 6 2 4 7
M  V30 7 1 5 8
M  V30 8 2 6 9
M  V30 9 2 8 10
M  V30 10 1 8 11
M  V30 11 1 9 12
M  V30 12 1 11 13
M  V30 13 1 12 14
M  V30 14 1 12 15
M  V30 15 1 12 16
M  V30 16 1 17 13 CFG=1
M  V30 17 1 17 18
M  V30 18 1 17 19
M  V30 19 2 18 20
M  V30 20 1 18 21
M  V30 21 1 20 22
M  V30 22 1 20 23
M  V30 23 2 21 24
M  V30 24 1 22 25
M  V30 25 2 23 26
M  V30 26 1 7 9
M  V30 27 1 24 26
M  V30 END BOND
M  V30 BEGIN COLLECTION
M  V30 MDLV30/STERAC1 ATOMS=(1 17)
M  V30 END COLLECTION
M  V30 END CTAB
M  END
>  <Rack>
PathogenBox_PlateB

>  <Position>
F07

>  <Compound ID>
MMV020321

>  <Disease Set>
MALARIA

>  <Trivial Name>


>  <Total Molecular Weight>
386.80

>  <Molecular Weight Parent Molecule>
386.80

>  <Molecular Formula>
C18H18N2O2ClF3

>  <Salt Name>


>  <Salt Coefficient>


>  <cLogP>
3.48

>  <SMILES>
COc1ccccc1C(C)NCC(=O)Nc2cc(ccc2Cl)C(F)(F)F

$$$$
Compound 137
Actelion Java MolfileCreator 2.0

  0  0  0  0  0  0              0 V3000
M  V30 BEGIN CTAB
M  V30 COUNTS 30 33 0 0 0
M  V30 BEGIN ATOM
M  V30 1 F 2.4641 2.5 0.0 0
M  V30 2 C 3.4641 2.5 0.0 0
M  V30 3 F 3.4641 3.5 0.0 0
M  V30 4 F 4.4641 2.5 0.0 0
M  V30 5 C 3.4641 1.5 0.0 0
M  V30 6 C 2.598 1.0 0.0 0
M  V30 7 C 4.3301 1.0 0.0 0
M  V30 8 C 2.598 0.0 0.0 0
M  V30 9 C 4.3301 0.0 0.0 0
M  V30 10 N 1.732 -0.5 0.0 0
M  V30 11 C 3.4641 -0.4999 0.0 0
M  V30 12 C 0.866 0.0 0.0 0
M  V30 13 N 3.4641 -1.5 0.0 0
M  V30 14 O 0.866 1.0 0.0 0
M  V30 15 C 0.0 -0.5 0.0 0
M  V30 16 C 2.598 -1.9999 0.0 0
M  V30 17 C 4.3301 -2.0 0.0 0
M  V30 18 N -0.9135 -0.0932 0.0 0
M  V30 19 N -0.1045 -1.4945 0.0 0
M  V30 20 C 2.598 -2.9999 0.0 0
M  V30 21 C 4.3301 -3.0 0.0 0
M  V30 22 N -1.5826 -0.8364 0.0 0
M  V30 23 C -1.0826 -1.7024 0.0 0
M  V30 24 O 3.4641 -3.5 0.0 0
M  V30 25 C -2.5826 -0.8364 0.0 0
M  V30 26 N -1.5826 -2.5684 0.0 0
M  V30 27 C -3.0826 -1.7024 0.0 0
M  V30 28 C -3.0826 0.0296 0.0 0
M  V30 29 C -2.5826 -2.5684 0.0 0
M  V30 30 C -3.0826 -3.4344 0.0 0
M  V30 END ATOM
M  V30 BEGIN BOND
M  V30 1 1 1 2
M  V30 2 1 2 3
M  V30 3 1 2 4
M  V30 4 1 2 5
M  V30 5 2 5 6
M  V30 6 1 5 7
M  V30 7 1 6 8
M  V30 8 2 7 9
M  V30 9 1 8 10
M  V30 10 2 8 11
M  V30 11 1 10 12
M  V30 12 1 11 13
M  V30 13 2 12 14
M  V30 14 1 12 15
M  V30 15 1 13 16
M  V30 16 1 13 17
M  V30 17 2 15 18
M  V30 18 1 15 19
M  V30 19 1 16 20
M  V30 20 1 17 21
M  V30 21 1 18 22
M  V30 22 2 19 23
M  V30 23 1 20 24
M  V30 24 1 22 25
M  V30 25 1 23 26
M  V30 26 2 25 27
M  V30 27 1 25 28
M  V30 28 2 26 29
M  V30 29 1 29 30
M  V30 30 1 9 11
M  V30 31 1 21 24
M  V30 32 1 22 23
M  V30 33 1 27 29
M  V30 END BOND
M  V30 END CTAB
M  END
>  <Rack>
PathogenBox_PlateB

>  <Position>
F08

>  <Compound ID>
MMV019087

>  <Disease Set>
MALARIA

>  <Trivial Name>


>  <Total Molecular Weight>
420.39

>  <Molecular Weight Parent Molecule>
420.39

>  <Molecular Formula>
C19H19N6O2F3

>  <Salt Name>


>  <Salt Coefficient>


>  <cLogP>
1.61

>  <SMILES>
Cc1cc(C)n2nc(nc2n1)C(=O)Nc3cc(ccc3N4CCOCC4)C(F)(F)F

$$$$
Compound 138
Actelion Java MolfileCreator 2.0

  0  0  0  0  0  0              0 V3000
M  V30 BEGIN CTAB
M  V30 COUNTS 29 31 0 0 0
M  V30 BEGIN ATOM
M  V30 1 Cl 2.598 2.25 0.0 0
M  V30 2 C 3.8971 1.5 0.0 0
M  V30 3 C 3.8971 0.0 0.0 0
M  V30 4 C 5.1961 2.25 0.0 0
M  V30 5 C 2.598 -0.75 0.0 0
M  V30 6 C 5.1961 -0.75 0.0 0
M  V30 7 C 6.4951 1.5 0.0 0
M  V30 8 O 2.598 -2.25 0.0 0
M  V30 9 N 1.299 0.0 0.0 0
M  V30 10 C 6.4951 0.0 0.0 0
M  V30 11 C 0.0 -0.75 0.0 0
M  V30 12 S 7.7942 -0.75 0.0 0
M  V30 13 N -1.299 0.0 0.0 0
M  V30 14 C 0.0 -2.25 0.0 0
M  V30 15 O 9.2942 -0.75 0.0 0
M  V30 16 O 8.5442 0.549 0.0 0
M  V30 17 N 7.7942 -2.25 0.0 0
M  V30 18 C -2.598 -0.75 0.0 0
M  V30 19 C -1.299 -3.0 0.0 0
M  V30 20 C 6.4951 -3.0 0.0 0
M  V30 21 C 9.0932 -3.0 0.0 0
M  V30 22 C -2.598 -2.25 0.0 0
M  V30 23 C -3.8971 0.0 0.0 0
M  V30 24 C 5.1961 -2.25 0.0 0
M  V30 25 C 6.4951 -4.5 0.0 0
M  V30 26 C 3.8971 -3.0 0.0 0
M  V30 27 C 5.1961 -5.25 0.0 0
M  V30 28 C 3.8971 -4.5 0.0 0
M  V30 29 F 2.598 -5.25 0.0 0
M  V30 END ATOM
M  V30 BEGIN BOND
M  V30 1 1 1 2
M  V30 2 2 2 3
M  V30 3 1 2 4
M  V30 4 1 3 5
M  V30 5 1 3 6
M  V30 6 2 4 7
M  V30 7 2 5 8
M  V30 8 1 5 9
M  V30 9 2 6 10
M  V30 10 1 9 11
M  V30 11 1 10 12
M  V30 12 2 11 13
M  V30 13 1 11 14
M  V30 14 2 12 15
M  V30 15 2 12 16
M  V30 16 1 12 17
M  V30 17 1 13 18
M  V30 18 2 14 19
M  V30 19 1 17 20
M  V30 20 1 17 21
M  V30 21 2 18 22
M  V30 22 1 18 23
M  V30 23 2 20 24
M  V30 24 1 20 25
M  V30 25 1 24 26
M  V30 26 2 25 27
M  V30 27 2 26 28
M  V30 28 1 28 29
M  V30 29 1 7 10
M  V30 30 1 19 22
M  V30 31 1 27 28
M  V30 END BOND
M  V30 END CTAB
M  END
>  <Rack>
PathogenBox_PlateB

>  <Position>
F09

>  <Compound ID>
MMV676528

>  <Disease Set>
MALARIA

>  <Trivial Name>


>  <Total Molecular Weight>
433.88

>  <Molecular Weight Parent Molecule>
433.88

>  <Molecular Formula>
C20H17N3O3ClFS

>  <Salt Name>


>  <Salt Coefficient>


>  <cLogP>
3.47

>  <SMILES>
CN(c1ccc(F)cc1)S(=O)(=O)c2ccc(Cl)c(c2)C(=O)Nc3cccc(C)n3

$$$$
Compound 139
Actelion Java MolfileCreator 2.0

  0  0  0  0  0  0              0 V3000
M  V30 BEGIN CTAB
M  V30 COUNTS 27 30 0 0 0
M  V30 BEGIN ATOM
M  V30 1 O 1.299 0.0 0.0 0
M  V30 2 C 2.598 -0.75 0.0 0
M  V30 3 N 3.8971 0.0 0.0 0
M  V30 4 C 2.598 -2.25 0.0 0
M  V30 5 C 5.1961 -0.7499 0.0 0
M  V30 6 C 1.3845 -3.1316 0.0 0
M  V30 7 C 3.8116 -3.1316 0.0 0
M  V30 8 O 5.3529 -2.2417 0.0 0
M  V30 9 N 6.5664 -0.1398 0.0 0
M  V30 10 N 1.848 -4.5582 0.0 0
M  V30 11 C -0.042 -2.6681 0.0 0
M  V30 12 N 3.348 -4.5582 0.0 0
M  V30 13 C 6.8201 -2.5536 0.0 0
M  V30 14 N 7.5701 -1.2546 0.0 0
M  V30 15 C -1.1567 -3.6718 0.0 0
M  V30 16 C -0.3539 -1.2009 0.0 0
M  V30 17 C 4.2297 -5.7717 0.0 0
M  V30 18 C 7.4302 -3.9239 0.0 0
M  V30 19 C -2.5833 -3.2083 0.0 0
M  V30 20 C -0.8448 -5.139 0.0 0
M  V30 21 C -1.7804 -0.7374 0.0 0
M  V30 22 C 3.6196 -7.1421 0.0 0
M  V30 23 C 5.7215 -5.6149 0.0 0
M  V30 24 C -2.8952 -1.7411 0.0 0
M  V30 25 C 4.5013 -8.3556 0.0 0
M  V30 26 C 6.6032 -6.8285 0.0 0
M  V30 27 C 5.9931 -8.1988 0.0 0
M  V30 END ATOM
M  V30 BEGIN BOND
M  V30 1 2 1 2
M  V30 2 1 2 3
M  V30 3 1 2 4
M  V30 4 1 3 5
M  V30 5 1 4 6
M  V30 6 2 4 7
M  V30 7 1 5 8
M  V30 8 2 5 9
M  V30 9 2 6 10
M  V30 10 1 6 11
M  V30 11 1 7 12
M  V30 12 1 8 13
M  V30 13 1 9 14
M  V30 14 2 11 15
M  V30 15 1 11 16
M  V30 16 1 12 17
M  V30 17 1 13 18
M  V30 18 1 15 19
M  V30 19 1 15 20
M  V30 20 2 16 21
M  V30 21 2 17 22
M  V30 22 1 17 23
M  V30 23 2 19 24
M  V30 24 1 22 25
M  V30 25 2 23 26
M  V30 26 2 25 27
M  V30 27 1 10 12
M  V30 28 2 13 14
M  V30 29 1 21 24
M  V30 30 1 26 27
M  V30 END BOND
M  V30 END CTAB
M  END
>  <Rack>
PathogenBox_PlateB

>  <Position>
F10

>  <Compound ID>
MMV020320

>  <Disease Set>
MALARIA

>  <Trivial Name>


>  <Total Molecular Weight>
359.39

>  <Molecular Weight Parent Molecule>
359.39

>  <Molecular Formula>
C20H17N5O2

>  <Salt Name>


>  <Salt Coefficient>


>  <cLogP>
2.86

>  <SMILES>
Cc1oc(NC(=O)c2cn(nc2c3ccccc3C)c4ccccc4)nn1

$$$$
Compound 140
Actelion Java MolfileCreator 2.0

  0  0  0  0  0  0              0 V3000
M  V30 BEGIN CTAB
M  V30 COUNTS 30 33 0 0 0
M  V30 BEGIN ATOM
M  V30 1 Cl 9.0932 4.5 0.0 0
M  V30 2 C 7.7942 3.75 0.0 0
M  V30 3 C 7.7942 2.25 0.0 0
M  V30 4 C 6.4951 4.5 0.0 0
M  V30 5 C 6.4951 1.5 0.0 0
M  V30 6 C 5.1961 3.75 0.0 0
M  V30 7 C 5.1961 2.25 0.0 0
M  V30 8 S 3.8971 1.5 0.0 0
M  V30 9 O 2.3971 1.4999 0.0 0
M  V30 10 O 3.1471 2.799 0.0 0
M  V30 11 N 3.8971 0.0 0.0 0
M  V30 12 C 2.598 -0.75 0.0 0 CFG=2
M  V30 13 C 2.598 -2.25 0.0 0
M  V30 14 C 1.299 0.0 0.0 0
M  V30 15 O 1.299 -3.0 0.0 0
M  V30 16 N 3.8971 -3.0 0.0 0
M  V30 17 C 0.0 -0.75 0.0 0
M  V30 18 C 3.8971 -4.5 0.0 0
M  V30 19 C 5.1961 -2.25 0.0 0
M  V30 20 C -1.3703 -0.1398 0.0 0
M  V30 21 C -0.1567 -2.2417 0.0 0
M  V30 22 C 5.1961 -5.25 0.0 0
M  V30 23 C 6.4951 -3.0 0.0 0
M  V30 24 C -2.374 -1.2546 0.0 0
M  V30 25 C -1.8338 1.2866 0.0 0
M  V30 26 N -1.624 -2.5536 0.0 0
M  V30 27 C 6.4951 -4.5 0.0 0
M  V30 28 C -3.8412 -0.9427 0.0 0
M  V30 29 C -3.301 1.5985 0.0 0
M  V30 30 C -4.3047 0.4838 0.0 0
M  V30 END ATOM
M  V30 BEGIN BOND
M  V30 1 1 1 2
M  V30 2 2 2 3
M  V30 3 1 2 4
M  V30 4 1 3 5
M  V30 5 2 4 6
M  V30 6 2 5 7
M  V30 7 1 7 8
M  V30 8 2 8 9
M  V30 9 2 8 10
M  V30 10 1 8 11
M  V30 11 1 12 11 CFG=3
M  V30 12 1 12 13
M  V30 13 1 12 14
M  V30 14 2 13 15
M  V30 15 1 13 16
M  V30 16 1 14 17
M  V30 17 1 16 18
M  V30 18 1 16 19
M  V30 19 1 17 20
M  V30 20 2 17 21
M  V30 21 1 18 22
M  V30 22 1 19 23
M  V30 23 2 20 24
M  V30 24 1 20 25
M  V30 25 1 21 26
M  V30 26 1 22 27
M  V30 27 1 24 28
M  V30 28 2 25 29
M  V30 29 2 28 30
M  V30 30 1 6 7
M  V30 31 1 23 27
M  V30 32 1 24 26
M  V30 33 1 29 30
M  V30 END BOND
M  V30 BEGIN COLLECTION
M  V30 MDLV30/STERAC1 ATOMS=(1 12)
M  V30 END COLLECTION
M  V30 END CTAB
M  END
>  <Rack>
PathogenBox_PlateB

>  <Position>
F11

>  <Compound ID>
MMV085210

>  <Disease Set>
MALARIA

>  <Trivial Name>


>  <Total Molecular Weight>
445.97

>  <Molecular Weight Parent Molecule>
445.97

>  <Molecular Formula>
C22H24N3O3ClS

>  <Salt Name>


>  <Salt Coefficient>


>  <cLogP>
3.71

>  <SMILES>
Clc1ccc(cc1)S(=O)(=O)NC(Cc2c[nH]c3ccccc23)C(=O)N4CCCCC4

$$$$
Compound 141
Actelion Java MolfileCreator 2.0

  0  0  0  0  0  0              0 V3000
M  V30 BEGIN CTAB
M  V30 COUNTS 14 15 0 0 0
M  V30 BEGIN ATOM
M  V30 1 Cl 3.3757 -2.5167 0.0 0
M  V30 2 C 3.0667 -1.5657 0.0 0
M  V30 3 N 2.0885 -1.3577 0.0 0
M  V30 4 C 3.7358 -0.8225 0.0 0
M  V30 5 N 1.7795 -0.4067 0.0 0
M  V30 6 C 3.4268 0.1284 0.0 0
M  V30 7 C 2.4487 0.3364 0.0 0
M  V30 8 C 0.866 0.0 0.0 0
M  V30 9 N 1.9487 1.2024 0.0 0
M  V30 10 N 0.9705 0.9945 0.0 0
M  V30 11 C 0.0 -0.5 0.0 0
M  V30 12 F 0.4999 -1.366 0.0 0
M  V30 13 F -0.866 -0.9999 0.0 0
M  V30 14 F -0.4999 0.366 0.0 0
M  V30 END ATOM
M  V30 BEGIN BOND
M  V30 1 1 1 2
M  V30 2 2 2 3
M  V30 3 1 2 4
M  V30 4 1 3 5
M  V30 5 2 4 6
M  V30 6 1 5 7
M  V30 7 1 5 8
M  V30 8 2 7 9
M  V30 9 2 8 10
M  V30 10 1 8 11
M  V30 11 1 11 12
M  V30 12 1 11 13
M  V30 13 1 11 14
M  V30 14 1 6 7
M  V30 15 1 9 10
M  V30 END BOND
M  V30 END CTAB
M  END
>  <Rack>
PathogenBox_PlateB

>  <Position>
G02

>  <Compound ID>
MMV069458

>  <Disease Set>
TUBERCULOSIS

>  <Trivial Name>


>  <Total Molecular Weight>
222.56

>  <Molecular Weight Parent Molecule>
222.56

>  <Molecular Formula>
C6H2N4ClF3

>  <Salt Name>


>  <Salt Coefficient>


>  <cLogP>
0.61

>  <SMILES>
FC(F)(F)c1nnc2ccc(Cl)nn12

$$$$
Compound 142
Actelion Java MolfileCreator 2.0

  0  0  0  0  0  0              0 V3000
M  V30 BEGIN CTAB
M  V30 COUNTS 21 22 0 0 0
M  V30 BEGIN ATOM
M  V30 1 S 2.7026 0.9945 0.0 0
M  V30 2 C 2.598 0.0 0.0 0
M  V30 3 C 3.6807 1.2024 0.0 0
M  V30 4 N 3.5116 -0.4067 0.0 0
M  V30 5 N 1.732 -0.5 0.0 0
M  V30 6 N 4.0874 2.1159 0.0 0 CHG=1
M  V30 7 C 4.1807 0.3364 0.0 0
M  V30 8 C 0.866 0.0 0.0 0
M  V30 9 O 5.082 2.2205 0.0 0
M  V30 10 O 3.4997 2.9249 0.0 0 CHG=-1
M  V30 11 O 0.866 1.0 0.0 0
M  V30 12 C 0.0 -0.5 0.0 0
M  V30 13 C 0.0 -1.4999 0.0 0
M  V30 14 C -0.866 0.0 0.0 0
M  V30 15 O 0.866 -1.9999 0.0 0
M  V30 16 C -0.866 -2.0 0.0 0
M  V30 17 C -1.732 -0.5 0.0 0
M  V30 18 C 0.866 -2.9999 0.0 0
M  V30 19 C -1.732 -1.5 0.0 0
M  V30 20 O 0.0 -3.5 0.0 0
M  V30 21 C 1.732 -3.4999 0.0 0
M  V30 END ATOM
M  V30 BEGIN BOND
M  V30 1 1 1 2
M  V30 2 1 1 3
M  V30 3 2 2 4
M  V30 4 1 2 5
M  V30 5 1 3 6
M  V30 6 2 3 7
M  V30 7 1 5 8
M  V30 8 2 6 9
M  V30 9 1 6 10
M  V30 10 2 8 11
M  V30 11 1 8 12
M  V30 12 2 12 13
M  V30 13 1 12 14
M  V30 14 1 13 15
M  V30 15 1 13 16
M  V30 16 2 14 17
M  V30 17 1 15 18
M  V30 18 2 16 19
M  V30 19 2 18 20
M  V30 20 1 18 21
M  V30 21 1 4 7
M  V30 22 1 17 19
M  V30 END BOND
M  V30 END CTAB
M  END
>  <Rack>
PathogenBox_PlateB

>  <Position>
G03

>  <Compound ID>
MMV688991

>  <Disease Set>
REFERENCE COMPOUNDS

>  <Trivial Name>
Nitazoxanide

>  <Total Molecular Weight>
307.28

>  <Molecular Weight Parent Molecule>
307.28

>  <Molecular Formula>
C12H9N3O5S

>  <Salt Name>


>  <Salt Coefficient>


>  <cLogP>
1.69

>  <SMILES>
CC(=O)Oc1ccccc1C(=O)Nc2ncc(s2)[N+](=O)[O-]

$$$$
Compound 143
Actelion Java MolfileCreator 2.0

  0  0  0  0  0  0              0 V3000
M  V30 BEGIN CTAB
M  V30 COUNTS 14 13 0 0 0
M  V30 BEGIN ATOM
M  V30 1 O 11.6913 0.0 0.0 0
M  V30 2 C 10.3923 -0.75 0.0 0
M  V30 3 C 9.0932 0.0 0.0 0 CFG=2
M  V30 4 N 7.7942 -0.75 0.0 0
M  V30 5 C 9.0932 1.5 0.0 0
M  V30 6 C 6.4951 0.0 0.0 0
M  V30 7 C 7.7942 2.25 0.0 0
M  V30 8 C 5.1961 -0.75 0.0 0
M  V30 9 N 3.8971 0.0 0.0 0
M  V30 10 C 2.598 -0.75 0.0 0 CFG=1
M  V30 11 C 2.598 -2.25 0.0 0
M  V30 12 C 1.299 0.0 0.0 0
M  V30 13 O 3.8971 -3.0 0.0 0
M  V30 14 C 0.0 -0.75 0.0 0
M  V30 END ATOM
M  V30 BEGIN BOND
M  V30 1 1 1 2
M  V30 2 1 3 2
M  V30 3 1 3 4 CFG=3
M  V30 4 1 3 5
M  V30 5 1 4 6
M  V30 6 1 5 7
M  V30 7 1 6 8
M  V30 8 1 8 9
M  V30 9 1 10 9 CFG=1
M  V30 10 1 10 11
M  V30 11 1 10 12
M  V30 12 1 11 13
M  V30 13 1 12 14
M  V30 END BOND
M  V30 BEGIN COLLECTION
M  V30 MDLV30/STEABS ATOMS=(2 3 10)
M  V30 END COLLECTION
M  V30 END CTAB
M  END
>  <Rack>
PathogenBox_PlateB

>  <Position>
G04

>  <Compound ID>
MMV687801

>  <Disease Set>
REFERENCE COMPOUNDS

>  <Trivial Name>
Ethambutol

>  <Total Molecular Weight>
277.23

>  <Molecular Weight Parent Molecule>
204.31

>  <Molecular Formula>
C10H24N2O2

>  <Salt Name>
Hydrochloride

>  <Salt Coefficient>
2

>  <cLogP>
-0.38

>  <SMILES>
CC[C@H](CO)NCCN[C@H](CC)CO

$$$$
Compound 144
Actelion Java MolfileCreator 2.0

  0  0  0  0  0  0              0 V3000
M  V30 BEGIN CTAB
M  V30 COUNTS 24 26 0 0 0
M  V30 BEGIN ATOM
M  V30 1 O 6.4951 0.0 0.0 0
M  V30 2 C 5.1961 -0.75 0.0 0
M  V30 3 C 3.8971 0.0 0.0 0
M  V30 4 C 5.1961 -2.2499 0.0 0
M  V30 5 O 3.8971 1.5 0.0 0
M  V30 6 C 2.598 -0.75 0.0 0
M  V30 7 C 3.8971 -3.0 0.0 0
M  V30 8 C 6.4951 -2.9999 0.0 0
M  V30 9 C 2.598 -2.25 0.0 0
M  V30 10 C 1.299 0.0 0.0 0
M  V30 11 C 3.8971 -4.5 0.0 0
M  V30 12 C 6.4951 -4.5 0.0 0
M  V30 13 O 1.299 -2.9999 0.0 0
M  V30 14 C 0.0 -0.75 0.0 0
M  V30 15 C 5.1961 -5.25 0.0 0
M  V30 16 C -1.299 0.0 0.0 0
M  V30 17 C 0.0 -2.2499 0.0 0
M  V30 18 C -2.598 -0.7499 0.0 0
M  V30 19 C -1.299 -2.9999 0.0 0
M  V30 20 C -2.598 -2.2499 0.0 0
M  V30 21 C -3.8971 -2.9999 0.0 0
M  V30 22 C -3.1471 -4.299 0.0 0
M  V30 23 C -5.1961 -3.7499 0.0 0
M  V30 24 C -4.6471 -1.7009 0.0 0
M  V30 END ATOM
M  V30 BEGIN BOND
M  V30 1 2 1 2
M  V30 2 1 2 3
M  V30 3 1 2 4
M  V30 4 1 3 5
M  V30 5 2 3 6
M  V30 6 2 4 7
M  V30 7 1 4 8
M  V30 8 1 6 9
M  V30 9 1 6 10
M  V30 10 1 7 11
M  V30 11 2 8 12
M  V30 12 2 9 13
M  V30 13 1 10 14
M  V30 14 2 11 15
M  V30 15 1 14 16
M  V30 16 1 14 17
M  V30 17 1 16 18
M  V30 18 1 17 19
M  V30 19 1 18 20
M  V30 20 1 20 21
M  V30 21 1 21 22
M  V30 22 1 21 23
M  V30 23 1 21 24
M  V30 24 1 7 9
M  V30 25 1 12 15
M  V30 26 1 19 20
M  V30 END BOND
M  V30 END CTAB
M  END
>  <Rack>
PathogenBox_PlateB

>  <Position>
G05

>  <Compound ID>
MMV689480

>  <Disease Set>
REFERENCE COMPOUNDS

>  <Trivial Name>
Buparvaquone

>  <Total Molecular Weight>
326.43

>  <Molecular Weight Parent Molecule>
326.43

>  <Molecular Formula>
C21H26O3

>  <Salt Name>


>  <Salt Coefficient>


>  <cLogP>
4.69

>  <SMILES>
O=C1C(CC2CCC(C(C)(C)C)CC2)=C(C(C3=C1C=CC=C3)=O)O

$$$$
Compound 145
Actelion Java MolfileCreator 2.0

  0  0  0  0  0  0              0 V3000
M  V30 BEGIN CTAB
M  V30 COUNTS 22 24 0 0 0
M  V30 BEGIN ATOM
M  V30 1 O 2.598 -2.25 0.0 0
M  V30 2 C 2.598 -0.75 0.0 0
M  V30 3 O 3.8971 0.0 0.0 0
M  V30 4 N 1.299 0.0 0.0 0
M  V30 5 C 5.1961 -0.75 0.0 0
M  V30 6 C 0.0 -0.75 0.0 0
M  V30 7 N -1.3703 -0.1398 0.0 0
M  V30 8 N -0.1567 -2.2417 0.0 0
M  V30 9 C -2.374 -1.2546 0.0 0
M  V30 10 C -1.624 -2.5536 0.0 0
M  V30 11 C -3.874 -1.2546 0.0 0
M  V30 12 C -2.374 -3.8526 0.0 0
M  V30 13 C -4.624 -2.5536 0.0 0
M  V30 14 C -3.874 -3.8526 0.0 0
M  V30 15 C -6.124 -2.5536 0.0 0
M  V30 16 O -6.874 -1.2546 0.0 0
M  V30 17 C -6.874 -3.8526 0.0 0
M  V30 18 C -8.374 -3.8526 0.0 0
M  V30 19 C -6.124 -5.1517 0.0 0
M  V30 20 C -9.124 -5.1517 0.0 0
M  V30 21 C -6.874 -6.4507 0.0 0
M  V30 22 C -8.374 -6.4507 0.0 0
M  V30 END ATOM
M  V30 BEGIN BOND
M  V30 1 2 1 2
M  V30 2 1 2 3
M  V30 3 1 2 4
M  V30 4 1 3 5
M  V30 5 1 4 6
M  V30 6 2 6 7
M  V30 7 1 6 8
M  V30 8 1 7 9
M  V30 9 1 8 10
M  V30 10 1 9 11
M  V30 11 1 10 12
M  V30 12 2 11 13
M  V30 13 2 12 14
M  V30 14 1 13 15
M  V30 15 2 15 16
M  V30 16 1 15 17
M  V30 17 2 17 18
M  V30 18 1 17 19
M  V30 19 1 18 20
M  V30 20 2 19 21
M  V30 21 2 20 22
M  V30 22 2 9 10
M  V30 23 1 13 14
M  V30 24 1 21 22
M  V30 END BOND
M  V30 END CTAB
M  END
>  <Rack>
PathogenBox_PlateB

>  <Position>
G06

>  <Compound ID>
MMV003152

>  <Disease Set>
REFERENCE COMPOUNDS

>  <Trivial Name>
Mebendazole

>  <Total Molecular Weight>
295.30

>  <Molecular Weight Parent Molecule>
295.30

>  <Molecular Formula>
C16H13N3O3

>  <Salt Name>


>  <Salt Coefficient>


>  <cLogP>
2.67

>  <SMILES>
COC(=O)Nc1nc2cc(ccc2[nH]1)C(=O)c3ccccc3

$$$$
Compound 146
Actelion Java MolfileCreator 2.0

  0  0  0  0  0  0              0 V3000
M  V30 BEGIN CTAB
M  V30 COUNTS 23 27 0 0 0
M  V30 BEGIN ATOM
M  V30 1 Br 7.4265 1.8044 0.0 0
M  V30 2 C 5.9258 1.8044 0.0 0
M  V30 3 C 5.1754 0.5048 0.0 0
M  V30 4 C 5.1754 3.1041 0.0 0
M  V30 5 C 3.6747 0.5048 0.0 0
M  V30 6 C 3.6747 3.1041 0.0 0
M  V30 7 C 2.9244 1.8044 0.0 0
M  V30 8 C 2.6706 -0.6103 0.0 0 CFG=1
M  V30 9 N 1.4565 1.4924 0.0 0
M  V30 10 N 4.0978 -1.0741 0.0 0
M  V30 11 C 1.2996 0.0 0.0 0
M  V30 12 C 1.5553 -1.6145 0.0 0
M  V30 13 C 4.4098 -2.542 0.0 0
M  V30 14 O -0.0017 -0.7303 0.0 0
M  V30 15 N 0.0637 -1.4677 0.0 0
M  V30 16 C 1.8673 -3.0824 0.0 0
M  V30 17 C 3.2946 -3.5462 0.0 0
M  V30 18 C -0.5475 -2.8286 0.0 0
M  V30 19 C 0.5677 -3.8328 0.0 0
M  V30 20 C -1.9747 -3.2923 0.0 0
M  V30 21 C 0.2557 -5.3007 0.0 0
M  V30 22 C -2.2867 -4.7603 0.0 0
M  V30 23 C -1.1715 -5.7644 0.0 0
M  V30 END ATOM
M  V30 BEGIN BOND
M  V30 1 1 1 2
M  V30 2 2 2 3
M  V30 3 1 2 4
M  V30 4 1 3 5
M  V30 5 2 4 6
M  V30 6 2 5 7
M  V30 7 1 8 5
M  V30 8 1 7 9
M  V30 9 1 8 10 CFG=1
M  V30 10 1 8 11
M  V30 11 1 8 12
M  V30 12 1 10 13
M  V30 13 2 11 14
M  V30 14 1 12 15
M  V30 15 2 12 16
M  V30 16 1 13 17
M  V30 17 1 15 18
M  V30 18 1 16 19
M  V30 19 1 18 20
M  V30 20 1 19 21
M  V30 21 2 20 22
M  V30 22 2 21 23
M  V30 23 1 6 7
M  V30 24 1 9 11
M  V30 25 1 16 17
M  V30 26 2 18 19
M  V30 27 1 22 23
M  V30 END BOND
M  V30 BEGIN COLLECTION
M  V30 MDLV30/STERAC1 ATOMS=(1 8)
M  V30 END COLLECTION
M  V30 END CTAB
M  END
>  <Rack>
PathogenBox_PlateB

>  <Position>
G07

>  <Compound ID>
MMV006239

>  <Disease Set>
MALARIA

>  <Trivial Name>


>  <Total Molecular Weight>
368.24

>  <Molecular Weight Parent Molecule>
368.24

>  <Molecular Formula>
C18H14N3OBr

>  <Salt Name>


>  <Salt Coefficient>


>  <cLogP>
2.43

>  <SMILES>
Brc1ccc2NC(=O)C3(NCCc4c3[nH]c5ccccc45)c2c1

$$$$
Compound 147
Actelion Java MolfileCreator 2.0

  0  0  0  0  0  0              0 V3000
M  V30 BEGIN CTAB
M  V30 COUNTS 25 27 0 0 0
M  V30 BEGIN ATOM
M  V30 1 Cl 9.0932 -9.0 0.0 0
M  V30 2 C 9.0932 -7.5 0.0 0
M  V30 3 C 10.3923 -6.75 0.0 0
M  V30 4 C 7.7942 -6.75 0.0 0
M  V30 5 C 10.3923 -5.25 0.0 0
M  V30 6 C 7.7942 -5.25 0.0 0
M  V30 7 C 9.0932 -4.5 0.0 0
M  V30 8 S 9.0932 -3.0 0.0 0
M  V30 9 O 10.5932 -3.0 0.0 0
M  V30 10 O 9.8432 -1.7009 0.0 0
M  V30 11 N 7.7942 -2.25 0.0 0
M  V30 12 C 7.7942 -0.75 0.0 0
M  V30 13 C 6.4952 -3.0 0.0 0
M  V30 14 C 6.4952 0.0 0.0 0
M  V30 15 C 5.1961 -2.25 0.0 0
M  V30 16 N 5.1961 -0.75 0.0 0
M  V30 17 C 3.8971 0.0 0.0 0
M  V30 18 S 3.8971 1.5 0.0 0
M  V30 19 N 2.598 -0.75 0.0 0
M  V30 20 C 1.299 0.0 0.0 0
M  V30 21 C 0.0 -0.75 0.0 0
M  V30 22 O -1.3703 -0.1398 0.0 0
M  V30 23 C -0.1567 -2.2417 0.0 0
M  V30 24 C -2.374 -1.2546 0.0 0
M  V30 25 C -1.624 -2.5536 0.0 0
M  V30 END ATOM
M  V30 BEGIN BOND
M  V30 1 1 1 2
M  V30 2 2 2 3
M  V30 3 1 2 4
M  V30 4 1 3 5
M  V30 5 2 4 6
M  V30 6 2 5 7
M  V30 7 1 7 8
M  V30 8 2 8 9
M  V30 9 2 8 10
M  V30 10 1 8 11
M  V30 11 1 11 12
M  V30 12 1 11 13
M  V30 13 1 12 14
M  V30 14 1 13 15
M  V30 15 1 14 16
M  V30 16 1 16 17
M  V30 17 2 17 18
M  V30 18 1 17 19
M  V30 19 1 19 20
M  V30 20 1 20 21
M  V30 21 1 21 22
M  V30 22 2 21 23
M  V30 23 1 22 24
M  V30 24 1 23 25
M  V30 25 1 6 7
M  V30 26 1 15 16
M  V30 27 2 24 25
M  V30 END BOND
M  V30 END CTAB
M  END
>  <Rack>
PathogenBox_PlateB

>  <Position>
G08

>  <Compound ID>
MMV000858

>  <Disease Set>
MALARIA

>  <Trivial Name>


>  <Total Molecular Weight>
399.92

>  <Molecular Weight Parent Molecule>
399.92

>  <Molecular Formula>
C16H18N3O3ClS2

>  <Salt Name>


>  <Salt Coefficient>


>  <cLogP>
2.21

>  <SMILES>
Clc1ccc(cc1)S(=O)(=O)N2CCN(CC2)C(=S)NCc3occc3

$$$$
Compound 148
Actelion Java MolfileCreator 2.0

  0  0  0  0  0  0              0 V3000
M  V30 BEGIN CTAB
M  V30 COUNTS 28 31 0 0 0
M  V30 BEGIN ATOM
M  V30 1 O 0.866 0.0 0.0 0
M  V30 2 C 1.732 -0.5 0.0 0
M  V30 3 C 0.0 -0.5 0.0 0
M  V30 4 C 1.732 -1.5 0.0 0
M  V30 5 C 2.598 0.0 0.0 0
M  V30 6 O 0.866 -1.9999 0.0 0
M  V30 7 C 2.598 -2.0 0.0 0
M  V30 8 C 3.4641 -0.5 0.0 0
M  V30 9 C 0.866 -2.9999 0.0 0
M  V30 10 C 3.4641 -1.5 0.0 0
M  V30 11 N 4.3301 0.0 0.0 0
M  V30 12 C 4.3301 -2.0 0.0 0
M  V30 13 C 5.1961 -0.5 0.0 0
M  V30 14 N 5.1961 -1.5 0.0 0
M  V30 15 N 4.3301 -3.0 0.0 0
M  V30 16 C 5.1961 -3.5 0.0 0
M  V30 17 C 5.1961 -4.5 0.0 0
M  V30 18 C 6.0621 -3.0 0.0 0
M  V30 19 C 6.0621 -5.0 0.0 0
M  V30 20 C 6.9282 -3.5 0.0 0
M  V30 21 N 6.9282 -4.5 0.0 0
M  V30 22 C 7.7942 -5.0 0.0 0
M  V30 23 C 8.6602 -4.5 0.0 0
M  V30 24 C 9.5262 -5.0 0.0 0
M  V30 25 C 8.6602 -3.5 0.0 0
M  V30 26 C 10.3923 -4.5 0.0 0
M  V30 27 C 9.5262 -3.0 0.0 0
M  V30 28 C 10.3923 -3.5 0.0 0
M  V30 END ATOM
M  V30 BEGIN BOND
M  V30 1 1 1 2
M  V30 2 1 1 3
M  V30 3 1 2 4
M  V30 4 2 2 5
M  V30 5 1 4 6
M  V30 6 2 4 7
M  V30 7 1 5 8
M  V30 8 1 6 9
M  V30 9 1 7 10
M  V30 10 2 8 11
M  V30 11 2 10 12
M  V30 12 1 11 13
M  V30 13 1 12 14
M  V30 14 1 12 15
M  V30 15 1 15 16
M  V30 16 1 16 17
M  V30 17 1 16 18
M  V30 18 1 17 19
M  V30 19 1 18 20
M  V30 20 1 19 21
M  V30 21 1 21 22
M  V30 22 1 22 23
M  V30 23 2 23 24
M  V30 24 1 23 25
M  V30 25 1 24 26
M  V30 26 2 25 27
M  V30 27 2 26 28
M  V30 28 1 8 10
M  V30 29 2 13 14
M  V30 30 1 20 21
M  V30 31 1 27 28
M  V30 END BOND
M  V30 END CTAB
M  END
>  <Rack>
PathogenBox_PlateB

>  <Position>
G09

>  <Compound ID>
MMV006741 

>  <Disease Set>
MALARIA

>  <Trivial Name>


>  <Total Molecular Weight>
378.48

>  <Molecular Weight Parent Molecule>
378.48

>  <Molecular Formula>
C22H26N4O2

>  <Salt Name>


>  <Salt Coefficient>


>  <cLogP>
3.19

>  <SMILES>
COc1cc2ncnc(NC3CCN(Cc4ccccc4)CC3)c2cc1OC

$$$$
Compound 149
Actelion Java MolfileCreator 2.0

  0  0  0  0  0  0              0 V3000
M  V30 BEGIN CTAB
M  V30 COUNTS 23 26 0 0 0
M  V30 BEGIN ATOM
M  V30 1 S 2.6455 -0.0932 0.0 0
M  V30 2 C 1.732 -0.5 0.0 0
M  V30 3 C 3.3147 -0.8364 0.0 0
M  V30 4 C 1.8365 -1.4945 0.0 0
M  V30 5 C 0.866 0.0 0.0 0 CFG=2
M  V30 6 C 2.8147 -1.7024 0.0 0
M  V30 7 N 0.866 1.0 0.0 0
M  V30 8 C 0.0 -0.5 0.0 0
M  V30 9 C 1.732 1.4999 0.0 0
M  V30 10 C 0.0 1.4999 0.0 0
M  V30 11 C -0.9135 -0.0932 0.0 0
M  V30 12 C -0.1045 -1.4945 0.0 0
M  V30 13 C 1.732 2.5 0.0 0
M  V30 14 C 0.0 2.5 0.0 0
M  V30 15 C -1.5826 -0.8364 0.0 0
M  V30 16 C -1.2225 0.8577 0.0 0
M  V30 17 N -1.0826 -1.7024 0.0 0
M  V30 18 C 0.6386 -2.1636 0.0 0
M  V30 19 N 0.866 3.0 0.0 0
M  V30 20 C -2.5608 -0.6284 0.0 0
M  V30 21 C -2.2007 1.0657 0.0 0
M  V30 22 C 0.866 4.0 0.0 0
M  V30 23 C -2.8698 0.3225 0.0 0
M  V30 END ATOM
M  V30 BEGIN BOND
M  V30 1 1 1 2
M  V30 2 1 1 3
M  V30 3 2 2 4
M  V30 4 1 5 2
M  V30 5 2 3 6
M  V30 6 1 5 7 CFG=1
M  V30 7 1 5 8
M  V30 8 1 7 9
M  V30 9 1 7 10
M  V30 10 1 8 11
M  V30 11 2 8 12
M  V30 12 1 9 13
M  V30 13 1 10 14
M  V30 14 2 11 15
M  V30 15 1 11 16
M  V30 16 1 12 17
M  V30 17 1 12 18
M  V30 18 1 13 19
M  V30 19 1 15 20
M  V30 20 2 16 21
M  V30 21 1 19 22
M  V30 22 2 20 23
M  V30 23 1 4 6
M  V30 24 1 14 19
M  V30 25 1 15 17
M  V30 26 1 21 23
M  V30 END BOND
M  V30 BEGIN COLLECTION
M  V30 MDLV30/STERAC1 ATOMS=(1 5)
M  V30 END COLLECTION
M  V30 END CTAB
M  END
>  <Rack>
PathogenBox_PlateB

>  <Position>
G10

>  <Compound ID>
MMV688768

>  <Disease Set>
SCHISTOSOMIASIS

>  <Trivial Name>


>  <Total Molecular Weight>
325.47

>  <Molecular Weight Parent Molecule>
325.47

>  <Molecular Formula>
C19H23N3S

>  <Salt Name>


>  <Salt Coefficient>


>  <cLogP>
3.38

>  <SMILES>
CN1CCN(CC1)C(c2cccs2)c3c(C)[nH]c4ccccc34

$$$$
Compound 150
Actelion Java MolfileCreator 2.0

  0  0  0  0  0  0              0 V3000
M  V30 BEGIN CTAB
M  V30 COUNTS 19 20 0 0 0
M  V30 BEGIN ATOM
M  V30 1 O 7.7942 0.0 0.0 0
M  V30 2 C 6.9282 -0.5 0.0 0
M  V30 3 C 7.7942 0.9999 0.0 0
M  V30 4 C 6.0621 0.0 0.0 0
M  V30 5 C 6.9282 -1.5 0.0 0
M  V30 6 C 5.1961 -0.5 0.0 0
M  V30 7 C 6.0621 -2.0 0.0 0
M  V30 8 N 4.3301 0.0 0.0 0
M  V30 9 C 5.1961 -1.5 0.0 0
M  V30 10 C 6.0621 -3.0 0.0 0
M  V30 11 C 3.4641 -0.5 0.0 0 CFG=2
M  V30 12 N 4.3301 -1.9999 0.0 0
M  V30 13 C 5.1961 -3.5 0.0 0
M  V30 14 C 2.598 0.0 0.0 0
M  V30 15 C 3.4641 -1.5 0.0 0
M  V30 16 C 4.3301 -3.0 0.0 0
M  V30 17 C 1.732 -0.5 0.0 0
M  V30 18 C 0.866 0.0 0.0 0
M  V30 19 N 0.0 -0.5 0.0 0
M  V30 END ATOM
M  V30 BEGIN BOND
M  V30 1 1 1 2
M  V30 2 1 1 3
M  V30 3 1 2 4
M  V30 4 2 2 5
M  V30 5 2 4 6
M  V30 6 1 5 7
M  V30 7 1 6 8
M  V30 8 1 6 9
M  V30 9 2 7 10
M  V30 10 1 11 8 CFG=1
M  V30 11 2 9 12
M  V30 12 1 10 13
M  V30 13 1 11 14
M  V30 14 1 11 15
M  V30 15 1 12 16
M  V30 16 1 14 17
M  V30 17 1 17 18
M  V30 18 1 18 19
M  V30 19 1 7 9
M  V30 20 2 13 16
M  V30 END BOND
M  V30 BEGIN COLLECTION
M  V30 MDLV30/STERAC1 ATOMS=(1 11)
M  V30 END COLLECTION
M  V30 END CTAB
M  END
>  <Rack>
PathogenBox_PlateB

>  <Position>
G11

>  <Compound ID>
MMV000023

>  <Disease Set>
REFERENCE COMPOUNDS

>  <Trivial Name>
Primaquine

>  <Total Molecular Weight>
455.35

>  <Molecular Weight Parent Molecule>
259.35

>  <Molecular Formula>
C15H21N3O

>  <Salt Name>
Phosphoric Acid

>  <Salt Coefficient>
2

>  <cLogP>
1.90

>  <SMILES>
COc1cc(NC(C)CCCN)c2ncccc2c1

$$$$
Compound 151
Actelion Java MolfileCreator 2.0

  0  0  0  0  0  0              0 V3000
M  V30 BEGIN CTAB
M  V30 COUNTS 34 38 0 0 0
M  V30 BEGIN ATOM
M  V30 1 O 3.8971 0.0 0.0 0
M  V30 2 C 2.598 -0.75 0.0 0
M  V30 3 N 1.299 0.0 0.0 0
M  V30 4 C 2.598 -2.25 0.0 0
M  V30 5 C 0.0 -0.75 0.0 0
M  V30 6 N 1.3845 -3.1316 0.0 0
M  V30 7 C 3.8116 -3.1316 0.0 0
M  V30 8 N 1.848 -4.5582 0.0 0
M  V30 9 C 3.348 -4.5582 0.0 0
M  V30 10 C 5.2788 -2.8198 0.0 0
M  V30 11 C 0.9663 -5.7717 0.0 0
M  V30 12 C 4.3517 -5.6729 0.0 0
M  V30 13 C 6.2825 -3.9345 0.0 0
M  V30 14 C 6.3935 -1.8161 0.0 0
M  V30 15 C 4.9669 -1.3526 0.0 0
M  V30 16 N 3.8882 -7.0995 0.0 0
M  V30 17 C 5.819 -5.3611 0.0 0
M  V30 18 C 4.8919 -8.2142 0.0 0
M  V30 19 C 6.8226 -6.4758 0.0 0
M  V30 20 N 6.3591 -7.9024 0.0 0
M  V30 21 N 4.4284 -9.6408 0.0 0
M  V30 22 C 5.4321 -10.7555 0.0 0
M  V30 23 C 4.9685 -12.1821 0.0 0
M  V30 24 C 6.8993 -10.4437 0.0 0
M  V30 25 C 5.9722 -13.2969 0.0 0
M  V30 26 C 7.903 -11.5584 0.0 0
M  V30 27 C 7.4395 -12.985 0.0 0
M  V30 28 N 8.4432 -14.0997 0.0 0
M  V30 29 C 7.9796 -15.5263 0.0 0
M  V30 30 C 9.9104 -13.7878 0.0 0
M  V30 31 C 8.9833 -16.641 0.0 0
M  V30 32 C 10.9141 -14.9026 0.0 0
M  V30 33 N 10.4506 -16.3291 0.0 0
M  V30 34 C 11.4543 -17.4439 0.0 0
M  V30 END ATOM
M  V30 BEGIN BOND
M  V30 1 2 1 2
M  V30 2 1 2 3
M  V30 3 1 2 4
M  V30 4 1 3 5
M  V30 5 2 4 6
M  V30 6 1 4 7
M  V30 7 1 6 8
M  V30 8 2 7 9
M  V30 9 1 7 10
M  V30 10 1 8 11
M  V30 11 1 9 12
M  V30 12 1 10 13
M  V30 13 1 10 14
M  V30 14 1 10 15
M  V30 15 2 12 16
M  V30 16 1 12 17
M  V30 17 1 16 18
M  V30 18 2 17 19
M  V30 19 2 18 20
M  V30 20 1 18 21
M  V30 21 1 21 22
M  V30 22 2 22 23
M  V30 23 1 22 24
M  V30 24 1 23 25
M  V30 25 2 24 26
M  V30 26 2 25 27
M  V30 27 1 27 28
M  V30 28 1 28 29
M  V30 29 1 28 30
M  V30 30 1 29 31
M  V30 31 1 30 32
M  V30 32 1 31 33
M  V30 33 1 33 34
M  V30 34 1 8 9
M  V30 35 1 13 17
M  V30 36 1 19 20
M  V30 37 1 26 27
M  V30 38 1 32 33
M  V30 END BOND
M  V30 END CTAB
M  END
>  <Rack>
PathogenBox_PlateB

>  <Position>
H02

>  <Compound ID>
MMV676602

>  <Disease Set>
KINETOPLASTIDS

>  <Trivial Name>


>  <Total Molecular Weight>
460.57

>  <Molecular Weight Parent Molecule>
460.57

>  <Molecular Formula>
C25H32N8O

>  <Salt Name>


>  <Salt Coefficient>


>  <cLogP>
2.09

>  <SMILES>
CNC(=O)c1nn(C)c2c3nc(Nc4ccc(cc4)N5CCN(C)CC5)ncc3CC(C)(C)c12

$$$$
Compound 152
Actelion Java MolfileCreator 2.0

  0  0  0  0  0  0              0 V3000
M  V30 BEGIN CTAB
M  V30 COUNTS 26 28 0 0 0
M  V30 BEGIN ATOM
M  V30 1 F 5.3971 -4.5 0.0 0
M  V30 2 C 3.8971 -4.5 0.0 0
M  V30 3 F 3.8971 -6.0 0.0 0
M  V30 4 F 2.3971 -4.5 0.0 0
M  V30 5 C 3.8971 -3.0 0.0 0
M  V30 6 N 5.1961 -2.25 0.0 0
M  V30 7 C 2.598 -2.25 0.0 0
M  V30 8 C 5.1961 -0.75 0.0 0
M  V30 9 C 2.598 -0.75 0.0 0
M  V30 10 C 3.8971 0.0 0.0 0
M  V30 11 C 6.4951 0.0 0.0 0
M  V30 12 C 1.299 0.0 0.0 0 CFG=2
M  V30 13 C 3.8971 1.5 0.0 0
M  V30 14 C 6.4951 1.4999 0.0 0
M  V30 15 C 7.7942 -0.75 0.0 0
M  V30 16 O 1.299 1.5 0.0 0
M  V30 17 C 0.0 -0.75 0.0 0 CFG=2
M  V30 18 C 5.1961 2.2499 0.0 0
M  V30 19 F 8.5442 0.549 0.0 0
M  V30 20 F 9.0932 -1.5 0.0 0
M  V30 21 F 7.0442 -2.049 0.0 0
M  V30 22 N -1.299 0.0 0.0 0
M  V30 23 C 0.0 -2.2499 0.0 0
M  V30 24 C -2.598 -0.7499 0.0 0
M  V30 25 C -1.299 -2.9999 0.0 0
M  V30 26 C -2.598 -2.2499 0.0 0
M  V30 END ATOM
M  V30 BEGIN BOND
M  V30 1 1 1 2
M  V30 2 1 2 3
M  V30 3 1 2 4
M  V30 4 1 2 5
M  V30 5 2 5 6
M  V30 6 1 5 7
M  V30 7 1 6 8
M  V30 8 2 7 9
M  V30 9 1 8 10
M  V30 10 2 8 11
M  V30 11 1 12 9
M  V30 12 2 10 13
M  V30 13 1 11 14
M  V30 14 1 11 15
M  V30 15 1 12 16 CFG=1
M  V30 16 1 17 12
M  V30 17 1 13 18
M  V30 18 1 15 19
M  V30 19 1 15 20
M  V30 20 1 15 21
M  V30 21 1 17 22 CFG=1
M  V30 22 1 17 23
M  V30 23 1 22 24
M  V30 24 1 23 25
M  V30 25 1 24 26
M  V30 26 1 9 10
M  V30 27 2 14 18
M  V30 28 1 25 26
M  V30 END BOND
M  V30 BEGIN COLLECTION
M  V30 MDLV30/STEABS ATOMS=(2 12 17)
M  V30 END COLLECTION
M  V30 END CTAB
M  END
>  <Rack>
PathogenBox_PlateB

>  <Position>
H03

>  <Compound ID>
MMV000016

>  <Disease Set>
REFERENCE COMPOUNDS

>  <Trivial Name>
Mefloquine

>  <Total Molecular Weight>
414.78

>  <Molecular Weight Parent Molecule>
378.32

>  <Molecular Formula>
C17H16N2OF6

>  <Salt Name>
Hydrochloride

>  <Salt Coefficient>
1

>  <cLogP>
3.51

>  <SMILES>
O[C@H]([C@H]1CCCCN1)c2cc(nc3c(cccc23)C(F)(F)F)C(F)(F)F

$$$$
Compound 153
Actelion Java MolfileCreator 2.0

  0  0  0  0  0  0              0 V3000
M  V30 BEGIN CTAB
M  V30 COUNTS 24 26 0 0 0
M  V30 BEGIN ATOM
M  V30 1 F 6.277 -7.7213 0.0 0
M  V30 2 C 7.1586 -6.5078 0.0 0
M  V30 3 C 8.6504 -6.6646 0.0 0
M  V30 4 C 6.5485 -5.1374 0.0 0
M  V30 5 N 9.2605 -8.0349 0.0 0
M  V30 6 C 9.5321 -5.451 0.0 0
M  V30 7 C 7.4302 -3.9239 0.0 0
M  V30 8 C 8.3789 -9.2484 0.0 0
M  V30 9 C 10.7523 -8.1917 0.0 0
M  V30 10 C 8.922 -4.0807 0.0 0
M  V30 11 N 6.8201 -2.5536 0.0 0
M  V30 12 C 8.989 -10.6187 0.0 0
M  V30 13 C 11.3624 -9.562 0.0 0
M  V30 14 C 7.5701 -1.2546 0.0 0
M  V30 15 C 5.3529 -2.2417 0.0 0
M  V30 16 O 10.4807 -10.7755 0.0 0
M  V30 17 O 9.0619 -1.0978 0.0 0
M  V30 18 O 6.5664 -0.1398 0.0 0
M  V30 19 C 5.1961 -0.75 0.0 0 CFG=2
M  V30 20 C 3.8971 0.0 0.0 0
M  V30 21 N 2.598 -0.75 0.0 0
M  V30 22 C 1.299 0.0 0.0 0
M  V30 23 O 1.299 1.5 0.0 0
M  V30 24 C 0.0 -0.75 0.0 0
M  V30 END ATOM
M  V30 BEGIN BOND
M  V30 1 1 1 2
M  V30 2 2 2 3
M  V30 3 1 2 4
M  V30 4 1 3 5
M  V30 5 1 3 6
M  V30 6 2 4 7
M  V30 7 1 5 8
M  V30 8 1 5 9
M  V30 9 2 6 10
M  V30 10 1 7 11
M  V30 11 1 8 12
M  V30 12 1 9 13
M  V30 13 1 11 14
M  V30 14 1 11 15
M  V30 15 1 12 16
M  V30 16 2 14 17
M  V30 17 1 14 18
M  V30 18 1 19 15
M  V30 19 1 19 20 CFG=1
M  V30 20 1 20 21
M  V30 21 1 21 22
M  V30 22 2 22 23
M  V30 23 1 22 24
M  V30 24 1 7 10
M  V30 25 1 13 16
M  V30 26 1 18 19
M  V30 END BOND
M  V30 BEGIN COLLECTION
M  V30 MDLV30/STEABS ATOMS=(1 19)
M  V30 END COLLECTION
M  V30 END CTAB
M  END
>  <Rack>
PathogenBox_PlateB

>  <Position>
H04

>  <Compound ID>
MMV687803

>  <Disease Set>
REFERENCE COMPOUNDS

>  <Trivial Name>
Linezolid

>  <Total Molecular Weight>
337.35

>  <Molecular Weight Parent Molecule>
337.35

>  <Molecular Formula>
C16H20N3O4F

>  <Salt Name>


>  <Salt Coefficient>


>  <cLogP>
0.52

>  <SMILES>
CC(=O)NC[C@@H]1CN(C(=O)O1)c2ccc(N3CCOCC3)c(F)c2

$$$$
Compound 154
Actelion Java MolfileCreator 2.0

  0  0  0  0  0  0              0 V3000
M  V30 BEGIN CTAB
M  V30 COUNTS 27 29 0 0 0
M  V30 BEGIN ATOM
M  V30 1 F 0.366 0.866 0.0 0
M  V30 2 C 0.866 0.0 0.0 0
M  V30 3 F 1.732 0.4999 0.0 0
M  V30 4 F 1.366 -0.866 0.0 0
M  V30 5 C 0.0 -0.5 0.0 0
M  V30 6 N -0.866 0.0 0.0 0
M  V30 7 C 0.0 -1.4999 0.0 0
M  V30 8 C -1.732 -0.4999 0.0 0
M  V30 9 C -0.866 -1.9999 0.0 0
M  V30 10 C -1.732 -1.4999 0.0 0
M  V30 11 C -2.598 -1.9999 0.0 0
M  V30 12 C -3.4641 -1.4999 0.0 0
M  V30 13 C -2.598 -2.9999 0.0 0
M  V30 14 N -4.3301 -1.9999 0.0 0
M  V30 15 N -3.4641 -0.4999 0.0 0
M  V30 16 C -3.4641 -3.4999 0.0 0
M  V30 17 C -4.3301 -2.9999 0.0 0
M  V30 18 C -3.4641 -4.4999 0.0 0
M  V30 19 C -4.3301 -4.9999 0.0 0
M  V30 20 C -2.598 -4.9999 0.0 0
M  V30 21 N -4.3301 -5.9999 0.0 0
M  V30 22 C -2.598 -5.9999 0.0 0
M  V30 23 C -3.4641 -6.4999 0.0 0
M  V30 24 C -3.4641 -7.4999 0.0 0
M  V30 25 F -2.4641 -7.4999 0.0 0
M  V30 26 F -3.4641 -8.4999 0.0 0
M  V30 27 F -4.4641 -7.4999 0.0 0
M  V30 END ATOM
M  V30 BEGIN BOND
M  V30 1 1 1 2
M  V30 2 1 2 3
M  V30 3 1 2 4
M  V30 4 1 2 5
M  V30 5 2 5 6
M  V30 6 1 5 7
M  V30 7 1 6 8
M  V30 8 2 7 9
M  V30 9 2 8 10
M  V30 10 1 10 11
M  V30 11 2 11 12
M  V30 12 1 11 13
M  V30 13 1 12 14
M  V30 14 1 12 15
M  V30 15 2 13 16
M  V30 16 2 14 17
M  V30 17 1 16 18
M  V30 18 2 18 19
M  V30 19 1 18 20
M  V30 20 1 19 21
M  V30 21 2 20 22
M  V30 22 2 21 23
M  V30 23 1 23 24
M  V30 24 1 24 25
M  V30 25 1 24 26
M  V30 26 1 24 27
M  V30 27 1 9 10
M  V30 28 1 16 17
M  V30 29 1 22 23
M  V30 END BOND
M  V30 END CTAB
M  END
>  <Rack>
PathogenBox_PlateB

>  <Position>
H05

>  <Compound ID>
MMV668727

>  <Disease Set>
ONCHOCERCIASIS

>  <Trivial Name>


>  <Total Molecular Weight>
384.28

>  <Molecular Weight Parent Molecule>
384.28

>  <Molecular Formula>
C17H10N4F6

>  <Salt Name>


>  <Salt Coefficient>


>  <cLogP>
3.45

>  <SMILES>
Nc1ncc(cc1c2ccc(nc2)C(F)(F)F)c3ccc(nc3)C(F)(F)F

$$$$
Compound 155
Actelion Java MolfileCreator 2.0

  0  0  0  0  0  0              0 V3000
M  V30 BEGIN CTAB
M  V30 COUNTS 29 32 0 0 0
M  V30 BEGIN ATOM
M  V30 1 S 6.4951 -3.0 0.0 0
M  V30 2 O 5.7451 -4.299 0.0 0
M  V30 3 O 7.2452 -4.299 0.0 0
M  V30 4 N 5.1961 -2.25 0.0 0
M  V30 5 C 7.7942 -2.25 0.0 0
M  V30 6 C 5.1961 -0.75 0.0 0
M  V30 7 C 3.8971 -3.0 0.0 0
M  V30 8 C 9.0932 -3.0 0.0 0
M  V30 9 C 7.7942 -0.75 0.0 0
M  V30 10 C 3.8971 0.0 0.0 0
M  V30 11 C 2.598 -2.25 0.0 0
M  V30 12 C 10.3923 -2.25 0.0 0
M  V30 13 C 9.0932 0.0 0.0 0
M  V30 14 N 2.598 -0.75 0.0 0
M  V30 15 C 10.3923 -0.75 0.0 0
M  V30 16 C 1.299 0.0 0.0 0
M  V30 17 C 11.6913 0.0 0.0 0
M  V30 18 O 1.299 1.5 0.0 0
M  V30 19 C 0.0 -0.75 0.0 0
M  V30 20 N -1.3703 -0.1398 0.0 0
M  V30 21 C -0.1567 -2.2417 0.0 0
M  V30 22 N -2.374 -1.2546 0.0 0
M  V30 23 C -1.624 -2.5536 0.0 0
M  V30 24 C -2.2341 -3.9239 0.0 0
M  V30 25 C -3.7259 -4.0807 0.0 0
M  V30 26 C -1.3524 -5.1375 0.0 0
M  V30 27 C -4.336 -5.451 0.0 0
M  V30 28 C -1.9625 -6.5078 0.0 0
M  V30 29 C -3.4543 -6.6646 0.0 0
M  V30 END ATOM
M  V30 BEGIN BOND
M  V30 1 2 1 2
M  V30 2 2 1 3
M  V30 3 1 1 4
M  V30 4 1 1 5
M  V30 5 1 4 6
M  V30 6 1 4 7
M  V30 7 2 5 8
M  V30 8 1 5 9
M  V30 9 1 6 10
M  V30 10 1 7 11
M  V30 11 1 8 12
M  V30 12 2 9 13
M  V30 13 1 10 14
M  V30 14 2 12 15
M  V30 15 1 14 16
M  V30 16 1 15 17
M  V30 17 2 16 18
M  V30 18 1 16 19
M  V30 19 2 19 20
M  V30 20 1 19 21
M  V30 21 1 20 22
M  V30 22 2 21 23
M  V30 23 1 23 24
M  V30 24 2 24 25
M  V30 25 1 24 26
M  V30 26 1 25 27
M  V30 27 2 26 28
M  V30 28 2 27 29
M  V30 29 1 11 14
M  V30 30 1 13 15
M  V30 31 1 22 23
M  V30 32 1 28 29
M  V30 END BOND
M  V30 END CTAB
M  END
>  <Rack>
PathogenBox_PlateB

>  <Position>
H06

>  <Compound ID>
MMV019742

>  <Disease Set>
MALARIA

>  <Trivial Name>


>  <Total Molecular Weight>
410.50

>  <Molecular Weight Parent Molecule>
410.50

>  <Molecular Formula>
C21H22N4O3S

>  <Salt Name>


>  <Salt Coefficient>


>  <cLogP>
2.35

>  <SMILES>
Cc1ccc(cc1)S(=O)(=O)N2CCN(CC2)C(=O)c3cc([nH]n3)c4ccccc4

$$$$
Compound 156
Actelion Java MolfileCreator 2.0

  0  0  0  0  0  0              0 V3000
M  V30 BEGIN CTAB
M  V30 COUNTS 23 25 0 0 0
M  V30 BEGIN ATOM
M  V30 1 Cl 7.1643 0.0228 0.0 0
M  V30 2 C 6.5765 -0.7861 0.0 0
M  V30 3 C 5.582 -0.6816 0.0 0
M  V30 4 C 6.9832 -1.6997 0.0 0
M  V30 5 C 4.9942 -1.4906 0.0 0
M  V30 6 C 5.1752 0.2318 0.0 0
M  V30 7 C 6.3954 -2.5087 0.0 0
M  V30 8 C 5.4009 -2.4042 0.0 0
M  V30 9 N 4.1807 0.3364 0.0 0
M  V30 10 Cl 6.8022 -3.4223 0.0 0
M  V30 11 N 3.6807 1.2024 0.0 0
M  V30 12 C 3.5116 -0.4067 0.0 0
M  V30 13 C 2.7026 0.9945 0.0 0
M  V30 14 C 2.598 0.0 0.0 0
M  V30 15 N 1.732 -0.5 0.0 0
M  V30 16 C 0.866 0.0 0.0 0
M  V30 17 O 0.866 1.0 0.0 0
M  V30 18 C 0.0 -0.5 0.0 0
M  V30 19 N -0.9135 -0.0932 0.0 0
M  V30 20 C -0.1045 -1.4945 0.0 0
M  V30 21 O -1.5826 -0.8364 0.0 0
M  V30 22 C -1.0826 -1.7024 0.0 0
M  V30 23 C -1.4894 -2.6159 0.0 0
M  V30 END ATOM
M  V30 BEGIN BOND
M  V30 1 1 1 2
M  V30 2 2 2 3
M  V30 3 1 2 4
M  V30 4 1 3 5
M  V30 5 1 3 6
M  V30 6 2 4 7
M  V30 7 2 5 8
M  V30 8 1 6 9
M  V30 9 1 7 10
M  V30 10 1 9 11
M  V30 11 1 9 12
M  V30 12 2 11 13
M  V30 13 2 12 14
M  V30 14 1 14 15
M  V30 15 1 15 16
M  V30 16 2 16 17
M  V30 17 1 16 18
M  V30 18 2 18 19
M  V30 19 1 18 20
M  V30 20 1 19 21
M  V30 21 2 20 22
M  V30 22 1 22 23
M  V30 23 1 7 8
M  V30 24 1 13 14
M  V30 25 1 21 22
M  V30 END BOND
M  V30 END CTAB
M  END
>  <Rack>
PathogenBox_PlateB

>  <Position>
H07

>  <Compound ID>
MMV009054

>  <Disease Set>
MALARIA

>  <Trivial Name>


>  <Total Molecular Weight>
351.19

>  <Molecular Weight Parent Molecule>
351.19

>  <Molecular Formula>
C15H12N4O2Cl2

>  <Salt Name>


>  <Salt Coefficient>


>  <cLogP>
2.30

>  <SMILES>
Cc1onc(c1)C(=O)Nc2cnn(Cc3ccc(Cl)cc3Cl)c2

$$$$
Compound 157
Actelion Java MolfileCreator 2.0

  0  0  0  0  0  0              0 V3000
M  V30 BEGIN CTAB
M  V30 COUNTS 23 25 0 0 0
M  V30 BEGIN ATOM
M  V30 1 O 1.732 -1.5 0.0 0
M  V30 2 C 1.732 -0.5 0.0 0
M  V30 3 N 2.598 0.0 0.0 0
M  V30 4 N 0.866 0.0 0.0 0
M  V30 5 C 3.4641 -0.5 0.0 0
M  V30 6 C 0.0 -0.5 0.0 0
M  V30 7 C 3.4641 -1.5 0.0 0
M  V30 8 C 4.3301 0.0 0.0 0
M  V30 9 C -0.866 0.0 0.0 0
M  V30 10 C 0.0 -1.4999 0.0 0
M  V30 11 C 4.3301 -2.0 0.0 0
M  V30 12 C 2.598 -1.9999 0.0 0
M  V30 13 C 5.1961 -0.5 0.0 0
M  V30 14 C -1.732 -0.4999 0.0 0
M  V30 15 C -0.866 -1.9999 0.0 0
M  V30 16 N 5.1961 -1.5 0.0 0
M  V30 17 C 4.3301 -3.0 0.0 0
M  V30 18 C 2.598 -2.9999 0.0 0
M  V30 19 N 6.0621 0.0 0.0 0
M  V30 20 C -1.732 -1.4999 0.0 0
M  V30 21 C 3.4641 -3.4999 0.0 0
M  V30 22 C 6.9282 -0.5 0.0 0
M  V30 23 C 6.0621 0.9999 0.0 0
M  V30 END ATOM
M  V30 BEGIN BOND
M  V30 1 2 1 2
M  V30 2 1 2 3
M  V30 3 1 2 4
M  V30 4 1 3 5
M  V30 5 1 4 6
M  V30 6 1 5 7
M  V30 7 2 5 8
M  V30 8 2 6 9
M  V30 9 1 6 10
M  V30 10 1 7 11
M  V30 11 2 7 12
M  V30 12 1 8 13
M  V30 13 1 9 14
M  V30 14 2 10 15
M  V30 15 1 11 16
M  V30 16 2 11 17
M  V30 17 1 12 18
M  V30 18 1 13 19
M  V30 19 2 14 20
M  V30 20 1 17 21
M  V30 21 1 19 22
M  V30 22 1 19 23
M  V30 23 2 13 16
M  V30 24 1 15 20
M  V30 25 2 18 21
M  V30 END BOND
M  V30 END CTAB
M  END
>  <Rack>
PathogenBox_PlateB

>  <Position>
H08

>  <Compound ID>
MMV006901

>  <Disease Set>
MALARIA

>  <Trivial Name>


>  <Total Molecular Weight>
306.37

>  <Molecular Weight Parent Molecule>
306.37

>  <Molecular Formula>
C18H18N4O

>  <Salt Name>


>  <Salt Coefficient>


>  <cLogP>
3.36

>  <SMILES>
CN(C)c1cc(NC(=O)Nc2ccccc2)c3ccccc3n1

$$$$
Compound 158
Actelion Java MolfileCreator 2.0

  0  0  0  0  0  0              0 V3000
M  V30 BEGIN CTAB
M  V30 COUNTS 26 27 0 0 0
M  V30 BEGIN ATOM
M  V30 1 Cl 3.8971 6.0 0.0 0
M  V30 2 C 3.8971 4.5 0.0 0
M  V30 3 C 2.598 3.75 0.0 0
M  V30 4 C 5.1961 3.75 0.0 0
M  V30 5 C 2.598 2.25 0.0 0
M  V30 6 C 5.1961 2.25 0.0 0
M  V30 7 C 3.8971 1.5 0.0 0
M  V30 8 C 3.8971 0.0 0.0 0 CFG=2
M  V30 9 C 2.598 -0.75 0.0 0
M  V30 10 C 5.1961 -0.75 0.0 0
M  V30 11 O 2.598 -2.25 0.0 0
M  V30 12 N 1.299 0.0 0.0 0
M  V30 13 C 6.4952 0.0 0.0 0
M  V30 14 C 5.1961 -2.25 0.0 0
M  V30 15 C 0.0 -0.75 0.0 0
M  V30 16 C -1.299 0.0 0.0 0
M  V30 17 C 0.0 -2.25 0.0 0
M  V30 18 C -2.598 -0.75 0.0 0
M  V30 19 C -1.299 -3.0 0.0 0
M  V30 20 C -2.598 -2.25 0.0 0
M  V30 21 S -3.8971 -3.0 0.0 0
M  V30 22 O -4.6471 -4.299 0.0 0
M  V30 23 O -3.1471 -4.299 0.0 0
M  V30 24 N -5.1961 -2.25 0.0 0
M  V30 25 C -5.1961 -0.75 0.0 0
M  V30 26 C -6.4952 -3.0 0.0 0
M  V30 END ATOM
M  V30 BEGIN BOND
M  V30 1 1 1 2
M  V30 2 2 2 3
M  V30 3 1 2 4
M  V30 4 1 3 5
M  V30 5 2 4 6
M  V30 6 2 5 7
M  V30 7 1 8 7 CFG=1
M  V30 8 1 8 9
M  V30 9 1 8 10
M  V30 10 2 9 11
M  V30 11 1 9 12
M  V30 12 1 10 13
M  V30 13 1 10 14
M  V30 14 1 12 15
M  V30 15 2 15 16
M  V30 16 1 15 17
M  V30 17 1 16 18
M  V30 18 2 17 19
M  V30 19 2 18 20
M  V30 20 1 20 21
M  V30 21 2 21 22
M  V30 22 2 21 23
M  V30 23 1 21 24
M  V30 24 1 24 25
M  V30 25 1 24 26
M  V30 26 1 6 7
M  V30 27 1 19 20
M  V30 END BOND
M  V30 BEGIN COLLECTION
M  V30 MDLV30/STERAC1 ATOMS=(1 8)
M  V30 END COLLECTION
M  V30 END CTAB
M  END
>  <Rack>
PathogenBox_PlateB

>  <Position>
H09

>  <Compound ID>
MMV020391

>  <Disease Set>
MALARIA

>  <Trivial Name>


>  <Total Molecular Weight>
394.92

>  <Molecular Weight Parent Molecule>
394.92

>  <Molecular Formula>
C19H23N2O3ClS

>  <Salt Name>


>  <Salt Coefficient>


>  <cLogP>
3.73

>  <SMILES>
CC(C)C(C(=O)Nc1ccc(cc1)S(=O)(=O)N(C)C)c2ccc(Cl)cc2

$$$$
Compound 159
Actelion Java MolfileCreator 2.0

  0  0  0  0  0  0              0 V3000
M  V30 BEGIN CTAB
M  V30 COUNTS 26 28 0 0 0
M  V30 BEGIN ATOM
M  V30 1 Cl 7.3453 1.7453 0.0 0
M  V30 2 C 6.7575 0.9363 0.0 0
M  V30 3 C 5.763 1.0408 0.0 0
M  V30 4 C 7.1643 0.0228 0.0 0
M  V30 5 C 5.1752 0.2318 0.0 0
M  V30 6 C 6.5765 -0.7861 0.0 0
M  V30 7 C 5.582 -0.6816 0.0 0
M  V30 8 C 4.1807 0.3364 0.0 0
M  V30 9 O 4.9942 -1.4906 0.0 0
M  V30 10 N 3.6807 1.2024 0.0 0
M  V30 11 C 3.5116 -0.4067 0.0 0
M  V30 12 N 2.7026 0.9945 0.0 0
M  V30 13 C 2.598 0.0 0.0 0
M  V30 14 C 1.732 -0.5 0.0 0
M  V30 15 O 1.732 -1.5 0.0 0
M  V30 16 N 0.866 0.0 0.0 0
M  V30 17 C 0.0 -0.5 0.0 0
M  V30 18 C -0.866 0.0 0.0 0
M  V30 19 C 0.0 -1.4999 0.0 0
M  V30 20 C -1.732 -0.4999 0.0 0
M  V30 21 C -0.866 -1.9999 0.0 0
M  V30 22 C -1.732 -1.4999 0.0 0
M  V30 23 N -2.598 -1.9999 0.0 0
M  V30 24 C -3.4641 -1.4999 0.0 0
M  V30 25 O -3.4641 -0.4999 0.0 0
M  V30 26 C -4.3301 -1.9999 0.0 0
M  V30 END ATOM
M  V30 BEGIN BOND
M  V30 1 1 1 2
M  V30 2 2 2 3
M  V30 3 1 2 4
M  V30 4 1 3 5
M  V30 5 2 4 6
M  V30 6 2 5 7
M  V30 7 1 5 8
M  V30 8 1 7 9
M  V30 9 1 8 10
M  V30 10 2 8 11
M  V30 11 1 10 12
M  V30 12 1 11 13
M  V30 13 1 13 14
M  V30 14 2 14 15
M  V30 15 1 14 16
M  V30 16 1 16 17
M  V30 17 2 17 18
M  V30 18 1 17 19
M  V30 19 1 18 20
M  V30 20 2 19 21
M  V30 21 2 20 22
M  V30 22 1 22 23
M  V30 23 1 23 24
M  V30 24 2 24 25
M  V30 25 1 24 26
M  V30 26 1 6 7
M  V30 27 2 12 13
M  V30 28 1 21 22
M  V30 END BOND
M  V30 END CTAB
M  END
>  <Rack>
PathogenBox_PlateB

>  <Position>
H10

>  <Compound ID>
MMV676380

>  <Disease Set>
MALARIA

>  <Trivial Name>


>  <Total Molecular Weight>
370.79

>  <Molecular Weight Parent Molecule>
370.79

>  <Molecular Formula>
C18H15N4O3Cl

>  <Salt Name>


>  <Salt Coefficient>


>  <cLogP>
2.47

>  <SMILES>
CC(=O)Nc1ccc(NC(=O)c2cc([nH]n2)c3cc(Cl)ccc3O)cc1

$$$$
Compound 160
Actelion Java MolfileCreator 2.0

  0  0  0  0  0  0              0 V3000
M  V30 BEGIN CTAB
M  V30 COUNTS 40 42 0 0 0
M  V30 BEGIN ATOM
M  V30 1 O 0.1141 -4.2205 0.0 0
M  V30 2 C 1.1086 -4.1159 0.0 0
M  V30 3 C 1.5154 -3.2024 0.0 0
M  V30 4 O 0.5167 -3.2547 0.0 0
M  V30 5 C 2.4935 -2.9945 0.0 0
M  V30 6 C 1.0154 -2.3364 0.0 0
M  V30 7 O 3.2366 -3.6636 0.0 0
M  V30 8 C 2.598 -1.9999 0.0 0
M  V30 9 O 1.6845 -1.5932 0.0 0
M  V30 10 C 0.0208 -2.2318 0.0 0
M  V30 11 C 3.0287 -4.6418 0.0 0
M  V30 12 O 3.4641 -1.4999 0.0 0
M  V30 13 O 2.0777 -4.9508 0.0 0
M  V30 14 C 3.7719 -5.3109 0.0 0
M  V30 15 C 3.4641 -0.4999 0.0 0
M  V30 16 C 1.8698 -5.9289 0.0 0
M  V30 17 N 4.7229 -5.0019 0.0 0
M  V30 18 C 3.564 -6.289 0.0 0
M  V30 19 C 4.3301 0.0 0.0 0
M  V30 20 C 2.598 0.0 0.0 0
M  V30 21 C 2.6129 -6.598 0.0 0
M  V30 22 C 0.9187 -6.2379 0.0 0
M  V30 23 C 4.9308 -4.0237 0.0 0
M  V30 24 O 4.3071 -6.9582 0.0 0
M  V30 25 O 5.1961 -0.5 0.0 0
M  V30 26 C 4.3301 1.0 0.0 0
M  V30 27 N 1.732 -0.5 0.0 0
M  V30 28 C 2.598 1.0 0.0 0
M  V30 29 O 2.405 -7.5762 0.0 0
M  V30 30 O 0.7108 -7.2161 0.0 0
M  V30 31 O 5.1961 1.5 0.0 0
M  V30 32 C 3.4641 1.5 0.0 0
M  V30 33 C 0.866 0.0 0.0 0
M  V30 34 O 1.732 1.4999 0.0 0
M  V30 35 N 3.4641 2.5 0.0 0
M  V30 36 N 0.866 1.0 0.0 0
M  V30 37 N 0.0 -0.5 0.0 0
M  V30 38 C 4.3301 3.0 0.0 0
M  V30 39 N 5.1961 2.5 0.0 0
M  V30 40 N 4.3301 4.0 0.0 0
M  V30 END ATOM
M  V30 BEGIN BOND
M  V30 1 2 1 2
M  V30 2 1 2 3
M  V30 3 1 3 4
M  V30 4 1 3 5
M  V30 5 1 3 6
M  V30 6 1 5 7
M  V30 7 1 5 8
M  V30 8 1 6 9
M  V30 9 1 6 10
M  V30 10 1 7 11
M  V30 11 1 8 12
M  V30 12 1 11 13
M  V30 13 1 11 14
M  V30 14 1 12 15
M  V30 15 1 13 16
M  V30 16 1 14 17
M  V30 17 1 14 18
M  V30 18 1 15 19
M  V30 19 1 15 20
M  V30 20 1 16 21
M  V30 21 1 16 22
M  V30 22 1 17 23
M  V30 23 1 18 24
M  V30 24 1 19 25
M  V30 25 1 19 26
M  V30 26 1 20 27
M  V30 27 1 20 28
M  V30 28 1 21 29
M  V30 29 1 22 30
M  V30 30 1 26 31
M  V30 31 1 26 32
M  V30 32 1 27 33
M  V30 33 1 28 34
M  V30 34 1 32 35
M  V30 35 2 33 36
M  V30 36 1 33 37
M  V30 37 1 35 38
M  V30 38 2 38 39
M  V30 39 1 38 40
M  V30 40 1 8 9
M  V30 41 1 18 21
M  V30 42 1 28 32
M  V30 END BOND
M  V30 END CTAB
M  END
>  <Rack>
PathogenBox_PlateB

>  <Position>
H11

>  <Compound ID>
MMV688994

>  <Disease Set>
REFERENCE COMPOUNDS

>  <Trivial Name>
Streptomycin

>  <Total Molecular Weight>
725.50

>  <Molecular Weight Parent Molecule>
581.57

>  <Molecular Formula>
C21H39N7O12

>  <Salt Name>
Sulfate

>  <Salt Coefficient>
1.5

>  <cLogP>
-8.21

>  <SMILES>
CNC1C(O)C(O)C(CO)OC1OC2C(OC3C(O)C(O)C(NC(=N)N)C(O)C3NC(=N)N)OC(C)C2(O)C=O

$$$$
Compound 161
Actelion Java MolfileCreator 2.0

  0  0  0  0  0  0              0 V3000
M  V30 BEGIN CTAB
M  V30 COUNTS 31 33 0 0 0
M  V30 BEGIN ATOM
M  V30 1 F 12.9903 2.9999 0.0 0
M  V30 2 C 12.1243 2.4999 0.0 0
M  V30 3 C 11.2583 2.9999 0.0 0
M  V30 4 C 12.1243 1.4999 0.0 0
M  V30 5 C 10.3923 2.5 0.0 0
M  V30 6 C 11.2583 0.9999 0.0 0
M  V30 7 C 10.3923 1.4999 0.0 0
M  V30 8 N 9.5262 1.0 0.0 0
M  V30 9 C 8.6602 1.5 0.0 0
M  V30 10 C 9.5262 0.0 0.0 0
M  V30 11 C 7.7942 0.9999 0.0 0
M  V30 12 C 8.6602 -0.4999 0.0 0
M  V30 13 N 7.7942 0.0 0.0 0
M  V30 14 C 6.9282 -0.5 0.0 0
M  V30 15 C 6.0621 0.0 0.0 0
M  V30 16 C 5.1961 -0.5 0.0 0
M  V30 17 C 4.3301 0.0 0.0 0
M  V30 18 N 3.4641 -0.5 0.0 0
M  V30 19 C 2.598 0.0 0.0 0
M  V30 20 C 3.4641 -1.5 0.0 0
M  V30 21 O 2.598 1.0 0.0 0
M  V30 22 O 1.732 -0.5 0.0 0
M  V30 23 C 4.3301 -2.0 0.0 0
M  V30 24 C 0.866 0.0 0.0 0
M  V30 25 N 5.1961 -2.5 0.0 0
M  V30 26 C 0.0 -0.5 0.0 0
M  V30 27 C -0.866 0.0 0.0 0
M  V30 28 C 0.0 -1.4999 0.0 0
M  V30 29 C -1.732 -0.4999 0.0 0
M  V30 30 C -0.866 -1.9999 0.0 0
M  V30 31 C -1.732 -1.4999 0.0 0
M  V30 END ATOM
M  V30 BEGIN BOND
M  V30 1 1 1 2
M  V30 2 2 2 3
M  V30 3 1 2 4
M  V30 4 1 3 5
M  V30 5 2 4 6
M  V30 6 2 5 7
M  V30 7 1 7 8
M  V30 8 1 8 9
M  V30 9 1 8 10
M  V30 10 1 9 11
M  V30 11 1 10 12
M  V30 12 1 11 13
M  V30 13 1 13 14
M  V30 14 1 14 15
M  V30 15 1 15 16
M  V30 16 1 16 17
M  V30 17 1 17 18
M  V30 18 1 18 19
M  V30 19 1 18 20
M  V30 20 2 19 21
M  V30 21 1 19 22
M  V30 22 1 20 23
M  V30 23 1 22 24
M  V30 24 3 23 25
M  V30 25 1 24 26
M  V30 26 2 26 27
M  V30 27 1 26 28
M  V30 28 1 27 29
M  V30 29 2 28 30
M  V30 30 2 29 31
M  V30 31 1 6 7
M  V30 32 1 12 13
M  V30 33 1 30 31
M  V30 END BOND
M  V30 END CTAB
M  END
>  <Rack>
PathogenBox_PlateC

>  <Position>
A02

>  <Compound ID>
MMV675997

>  <Disease Set>
KINETOPLASTIDS

>  <Trivial Name>


>  <Total Molecular Weight>
424.51

>  <Molecular Weight Parent Molecule>
424.51

>  <Molecular Formula>
C24H29N4O2F

>  <Salt Name>


>  <Salt Coefficient>


>  <cLogP>
3.48

>  <SMILES>
Fc1ccc(cc1)N2CCN(CCCCN(CC#N)C(=O)OCc3ccccc3)CC2

$$$$
Compound 162
Actelion Java MolfileCreator 2.0

  0  0  0  0  0  0              0 V3000
M  V30 BEGIN CTAB
M  V30 COUNTS 25 27 0 0 0
M  V30 BEGIN ATOM
M  V30 1 F 7.7942 -2.0 0.0 0
M  V30 2 C 6.9282 -1.5 0.0 0
M  V30 3 C 6.9282 -0.5 0.0 0
M  V30 4 C 6.0621 -2.0 0.0 0
M  V30 5 C 6.0621 0.0 0.0 0
M  V30 6 C 5.1961 -1.5 0.0 0
M  V30 7 C 5.1961 -0.5 0.0 0
M  V30 8 C 4.3301 0.0 0.0 0
M  V30 9 O 4.3301 1.0 0.0 0
M  V30 10 N 3.4641 -0.5 0.0 0
M  V30 11 C 3.4641 -1.5 0.0 0
M  V30 12 C 2.598 0.0 0.0 0
M  V30 13 C 2.598 -1.9999 0.0 0
M  V30 14 C 4.3301 -2.0 0.0 0
M  V30 15 C 1.732 -0.5 0.0 0
M  V30 16 C 2.598 -2.9999 0.0 0
M  V30 17 C 4.3301 -3.0 0.0 0
M  V30 18 N 0.866 0.0 0.0 0
M  V30 19 C 3.4641 -3.5 0.0 0
M  V30 20 C 0.0 -0.5 0.0 0
M  V30 21 C -0.866 0.0 0.0 0
M  V30 22 C 0.0 -1.4999 0.0 0
M  V30 23 C -1.732 -0.4999 0.0 0
M  V30 24 C -0.866 -1.9999 0.0 0
M  V30 25 C -1.732 -1.4999 0.0 0
M  V30 END ATOM
M  V30 BEGIN BOND
M  V30 1 1 1 2
M  V30 2 2 2 3
M  V30 3 1 2 4
M  V30 4 1 3 5
M  V30 5 2 4 6
M  V30 6 2 5 7
M  V30 7 1 7 8
M  V30 8 2 8 9
M  V30 9 1 8 10
M  V30 10 1 10 11
M  V30 11 1 10 12
M  V30 12 2 11 13
M  V30 13 1 11 14
M  V30 14 1 12 15
M  V30 15 1 13 16
M  V30 16 2 14 17
M  V30 17 1 15 18
M  V30 18 2 16 19
M  V30 19 1 18 20
M  V30 20 2 20 21
M  V30 21 1 20 22
M  V30 22 1 21 23
M  V30 23 2 22 24
M  V30 24 2 23 25
M  V30 25 1 6 7
M  V30 26 1 17 19
M  V30 27 1 24 25
M  V30 END BOND
M  V30 END CTAB
M  END
>  <Rack>
PathogenBox_PlateC

>  <Position>
A03

>  <Compound ID>
MMV676204

>  <Disease Set>
ONCHOCERCIASIS

>  <Trivial Name>


>  <Total Molecular Weight>
334.39

>  <Molecular Weight Parent Molecule>
334.39

>  <Molecular Formula>
C21H19N2OF

>  <Salt Name>


>  <Salt Coefficient>


>  <cLogP>
4.30

>  <SMILES>
Fc1ccc(cc1)C(=O)N(CCNc2ccccc2)c3ccccc3

$$$$
Compound 163
Actelion Java MolfileCreator 2.0

  0  0  0  0  0  0              0 V3000
M  V30 BEGIN CTAB
M  V30 COUNTS 25 27 0 0 0
M  V30 BEGIN ATOM
M  V30 1 F 9.8037 -2.8672 0.0 0
M  V30 2 C 8.922 -4.0807 0.0 0
M  V30 3 C 7.4302 -3.9239 0.0 0
M  V30 4 C 9.5321 -5.451 0.0 0
M  V30 5 C 6.8201 -2.5536 0.0 0
M  V30 6 C 6.5486 -5.1375 0.0 0
M  V30 7 C 8.6504 -6.6646 0.0 0
M  V30 8 C 7.5701 -1.2546 0.0 0
M  V30 9 C 5.3529 -2.2417 0.0 0
M  V30 10 C 7.1587 -6.5078 0.0 0
M  V30 11 N 6.5664 -0.1398 0.0 0
M  V30 12 N 5.1961 -0.75 0.0 0
M  V30 13 C 3.8971 0.0 0.0 0
M  V30 14 C 2.598 -0.75 0.0 0
M  V30 15 C 4.6471 1.299 0.0 0
M  V30 16 C 3.1471 1.299 0.0 0
M  V30 17 O 2.598 -2.25 0.0 0
M  V30 18 N 1.299 0.0 0.0 0
M  V30 19 C 0.0 -0.75 0.0 0
M  V30 20 C -1.299 0.0 0.0 0
M  V30 21 C 0.0 -2.25 0.0 0
M  V30 22 C -2.598 -0.75 0.0 0
M  V30 23 C -1.299 -3.0 0.0 0
M  V30 24 C -2.598 -2.25 0.0 0
M  V30 25 F -3.8971 -3.0 0.0 0
M  V30 END ATOM
M  V30 BEGIN BOND
M  V30 1 1 1 2
M  V30 2 2 2 3
M  V30 3 1 2 4
M  V30 4 1 3 5
M  V30 5 1 3 6
M  V30 6 2 4 7
M  V30 7 1 5 8
M  V30 8 2 5 9
M  V30 9 2 6 10
M  V30 10 2 8 11
M  V30 11 1 9 12
M  V30 12 1 12 13
M  V30 13 1 13 14
M  V30 14 1 13 15
M  V30 15 1 13 16
M  V30 16 2 14 17
M  V30 17 1 14 18
M  V30 18 1 18 19
M  V30 19 2 19 20
M  V30 20 1 19 21
M  V30 21 1 20 22
M  V30 22 2 21 23
M  V30 23 2 22 24
M  V30 24 1 24 25
M  V30 25 1 7 10
M  V30 26 1 11 12
M  V30 27 1 23 24
M  V30 END BOND
M  V30 END CTAB
M  END
>  <Rack>
PathogenBox_PlateC

>  <Position>
A04

>  <Compound ID>
MMV687239

>  <Disease Set>
TUBERCULOSIS

>  <Trivial Name>


>  <Total Molecular Weight>
341.35

>  <Molecular Weight Parent Molecule>
341.35

>  <Molecular Formula>
C19H17N3OF2

>  <Salt Name>


>  <Salt Coefficient>


>  <cLogP>
2.84

>  <SMILES>
CC(C)(C(=O)Nc1ccc(F)cc1)n2cc(cn2)c3ccccc3F

$$$$
Compound 164
Actelion Java MolfileCreator 2.0

  0  0  0  0  0  0              0 V3000
M  V30 BEGIN CTAB
M  V30 COUNTS 23 26 0 0 0
M  V30 BEGIN ATOM
M  V30 1 S 2.8059 0.9781 0.0 0
M  V30 2 C 2.598 0.0 0.0 0
M  V30 3 C 3.8005 1.0826 0.0 0
M  V30 4 C 1.732 -0.5 0.0 0
M  V30 5 C 3.4641 -0.4999 0.0 0
M  V30 6 C 4.2072 0.1691 0.0 0
M  V30 7 N 1.732 -1.5 0.0 0
M  V30 8 N 0.866 0.0 0.0 0
M  V30 9 N 3.4641 -1.4999 0.0 0
M  V30 10 C 2.598 -1.9999 0.0 0
M  V30 11 C 0.0 -0.5 0.0 0
M  V30 12 C 2.598 -3.0 0.0 0
M  V30 13 N -0.866 0.0 0.0 0
M  V30 14 C 0.0 -1.4999 0.0 0
M  V30 15 N 1.732 -3.5 0.0 0
M  V30 16 C 3.4641 -3.4999 0.0 0
M  V30 17 C -1.732 -0.4999 0.0 0
M  V30 18 C -0.866 -1.9999 0.0 0
M  V30 19 C 1.732 -4.5 0.0 0
M  V30 20 C 3.4641 -4.4999 0.0 0
M  V30 21 N -1.732 -1.4999 0.0 0
M  V30 22 C 2.598 -5.0 0.0 0
M  V30 23 C 0.866 -5.0 0.0 0
M  V30 END ATOM
M  V30 BEGIN BOND
M  V30 1 1 1 2
M  V30 2 1 1 3
M  V30 3 2 2 4
M  V30 4 1 2 5
M  V30 5 2 3 6
M  V30 6 1 4 7
M  V30 7 1 4 8
M  V30 8 2 5 9
M  V30 9 2 7 10
M  V30 10 1 8 11
M  V30 11 1 10 12
M  V30 12 2 11 13
M  V30 13 1 11 14
M  V30 14 2 12 15
M  V30 15 1 12 16
M  V30 16 1 13 17
M  V30 17 2 14 18
M  V30 18 1 15 19
M  V30 19 2 16 20
M  V30 20 2 17 21
M  V30 21 2 19 22
M  V30 22 1 19 23
M  V30 23 1 5 6
M  V30 24 1 9 10
M  V30 25 1 18 21
M  V30 26 1 20 22
M  V30 END BOND
M  V30 END CTAB
M  END
>  <Rack>
PathogenBox_PlateC

>  <Position>
A05

>  <Compound ID>
MMV688122

>  <Disease Set>
TUBERCULOSIS

>  <Trivial Name>


>  <Total Molecular Weight>
320.37

>  <Molecular Weight Parent Molecule>
320.37

>  <Molecular Formula>
C16H12N6S

>  <Salt Name>


>  <Salt Coefficient>


>  <cLogP>
2.86

>  <SMILES>
Cc1cccc(n1)c2nc(Nc3ccncn3)c4sccc4n2

$$$$
Compound 165
Actelion Java MolfileCreator 2.0

  0  0  0  0  0  0              0 V3000
M  V30 BEGIN CTAB
M  V30 COUNTS 23 25 0 0 0
M  V30 BEGIN ATOM
M  V30 1 Cl 2.598 2.9999 0.0 0
M  V30 2 C 1.732 2.4999 0.0 0
M  V30 3 C 0.866 2.9999 0.0 0
M  V30 4 C 1.732 1.5 0.0 0
M  V30 5 F 0.866 3.9999 0.0 0
M  V30 6 C 0.0 2.4999 0.0 0
M  V30 7 C 0.866 0.9999 0.0 0
M  V30 8 C 0.0 1.5 0.0 0
M  V30 9 C 0.866 0.0 0.0 0
M  V30 10 C 0.0 -0.5 0.0 0
M  V30 11 N -0.9135 -0.0932 0.0 0
M  V30 12 C -0.1045 -1.4945 0.0 0
M  V30 13 N -1.5826 -0.8364 0.0 0
M  V30 14 C 0.5646 -2.2376 0.0 0
M  V30 15 C -1.0826 -1.7024 0.0 0
M  V30 16 C -2.5771 -0.7318 0.0 0
M  V30 17 N 0.2555 -3.1887 0.0 0
M  V30 18 N 1.5427 -2.0297 0.0 0
M  V30 19 N -1.3916 -2.6534 0.0 0
M  V30 20 C -2.6817 -1.7264 0.0 0
M  V30 21 C -3.5717 -0.6273 0.0 0
M  V30 22 C -2.4726 0.2626 0.0 0
M  V30 23 C -0.7225 -3.3966 0.0 0
M  V30 END ATOM
M  V30 BEGIN BOND
M  V30 1 1 1 2
M  V30 2 2 2 3
M  V30 3 1 2 4
M  V30 4 1 3 5
M  V30 5 1 3 6
M  V30 6 2 4 7
M  V30 7 2 6 8
M  V30 8 1 7 9
M  V30 9 1 9 10
M  V30 10 2 10 11
M  V30 11 1 10 12
M  V30 12 1 11 13
M  V30 13 2 12 14
M  V30 14 1 12 15
M  V30 15 1 13 16
M  V30 16 1 14 17
M  V30 17 1 14 18
M  V30 18 2 15 19
M  V30 19 1 16 20
M  V30 20 1 16 21
M  V30 21 1 16 22
M  V30 22 2 17 23
M  V30 23 1 7 8
M  V30 24 1 13 15
M  V30 25 1 19 23
M  V30 END BOND
M  V30 END CTAB
M  END
>  <Rack>
PathogenBox_PlateC

>  <Position>
A06

>  <Compound ID>
MMV688852

>  <Disease Set>
TOXOPLASMOSIS

>  <Trivial Name>


>  <Total Molecular Weight>
333.79

>  <Molecular Weight Parent Molecule>
333.79

>  <Molecular Formula>
C16H17N5ClF

>  <Salt Name>


>  <Salt Coefficient>


>  <cLogP>
2.88

>  <SMILES>
CC(C)(C)n1nc(Cc2ccc(F)c(Cl)c2)c2c(N)ncnc12

$$$$
Compound 166
Actelion Java MolfileCreator 2.0

  0  0  0  0  0  0              0 V3000
M  V30 BEGIN CTAB
M  V30 COUNTS 18 19 0 0 0
M  V30 BEGIN ATOM
M  V30 1 S 5.1961 -0.75 0.0 0
M  V30 2 O 4.4461 -2.049 0.0 0
M  V30 3 O 5.9461 -2.049 0.0 0
M  V30 4 N 6.4952 0.0 0.0 0
M  V30 5 C 3.8971 0.0 0.0 0
M  V30 6 C 7.7942 -0.75 0.0 0
M  V30 7 C 2.598 -0.75 0.0 0
M  V30 8 C 7.7942 -2.25 0.0 0
M  V30 9 C 9.0932 0.0 0.0 0
M  V30 10 C 1.299 0.0 0.0 0
M  V30 11 C 9.0932 -3.0 0.0 0
M  V30 12 C 10.3923 -0.75 0.0 0
M  V30 13 C 0.0 -0.75 0.0 0
M  V30 14 N 9.4051 -4.4672 0.0 0
M  V30 15 C 10.3923 -2.25 0.0 0
M  V30 16 N 10.8969 -4.624 0.0 0
M  V30 17 C 8.4014 -5.5819 0.0 0
M  V30 18 C 11.507 -3.2537 0.0 0
M  V30 END ATOM
M  V30 BEGIN BOND
M  V30 1 2 1 2
M  V30 2 2 1 3
M  V30 3 1 1 4
M  V30 4 1 1 5
M  V30 5 1 4 6
M  V30 6 1 5 7
M  V30 7 2 6 8
M  V30 8 1 6 9
M  V30 9 1 7 10
M  V30 10 1 8 11
M  V30 11 2 9 12
M  V30 12 1 10 13
M  V30 13 1 11 14
M  V30 14 2 11 15
M  V30 15 1 14 16
M  V30 16 1 14 17
M  V30 17 1 15 18
M  V30 18 1 12 15
M  V30 19 2 16 18
M  V30 END BOND
M  V30 END CTAB
M  END
>  <Rack>
PathogenBox_PlateC

>  <Position>
A07

>  <Compound ID>
MMV687145

>  <Disease Set>
TUBERCULOSIS

>  <Trivial Name>


>  <Total Molecular Weight>
267.35

>  <Molecular Weight Parent Molecule>
267.35

>  <Molecular Formula>
C12H17N3O2S

>  <Salt Name>


>  <Salt Coefficient>


>  <cLogP>
1.49

>  <SMILES>
CCCCS(=O)(=O)Nc1ccc2cnn(C)c2c1

$$$$
Compound 167
Actelion Java MolfileCreator 2.0

  0  0  0  0  0  0              0 V3000
M  V30 BEGIN CTAB
M  V30 COUNTS 32 35 0 0 0
M  V30 BEGIN ATOM
M  V30 1 F 4.1846 -5.1475 0.0 0
M  V30 2 C 4.7724 -4.3385 0.0 0
M  V30 3 C 5.7669 -4.443 0.0 0
M  V30 4 C 4.3657 -3.4249 0.0 0
M  V30 5 C 6.1737 -5.3566 0.0 0
M  V30 6 C 6.3547 -3.634 0.0 0
M  V30 7 C 4.9535 -2.6159 0.0 0
M  V30 8 C 5.5859 -6.1656 0.0 0
M  V30 9 C 7.1682 -5.4611 0.0 0
M  V30 10 C 5.948 -2.7205 0.0 0
M  V30 11 N 4.5467 -1.7024 0.0 0
M  V30 12 C 5.9926 -7.0791 0.0 0
M  V30 13 C 7.5749 -6.3746 0.0 0
M  V30 14 C 5.0467 -0.8364 0.0 0
M  V30 15 C 3.5686 -1.4945 0.0 0
M  V30 16 C 6.9871 -7.1837 0.0 0
M  V30 17 O 6.0412 -0.7318 0.0 0
M  V30 18 O 4.3776 -0.0932 0.0 0
M  V30 19 C 3.4641 -0.5 0.0 0 CFG=1
M  V30 20 C 7.3939 -8.0972 0.0 0
M  V30 21 C 2.598 0.0 0.0 0
M  V30 22 N 8.3884 -8.2017 0.0 0
M  V30 23 N 1.732 -0.5 0.0 0
M  V30 24 C 8.7951 -9.1153 0.0 0
M  V30 25 C 0.866 0.0 0.0 0
M  V30 26 C 9.7897 -9.2198 0.0 0
M  V30 27 O 0.866 1.0 0.0 0
M  V30 28 C 0.0 -0.5 0.0 0
M  V30 29 N 10.2897 -10.0858 0.0 0
M  V30 30 C 10.4588 -8.4767 0.0 0
M  V30 31 N 11.2678 -9.8779 0.0 0
M  V30 32 N 11.3723 -8.8834 0.0 0
M  V30 END ATOM
M  V30 BEGIN BOND
M  V30 1 1 1 2
M  V30 2 2 2 3
M  V30 3 1 2 4
M  V30 4 1 3 5
M  V30 5 1 3 6
M  V30 6 2 4 7
M  V30 7 2 5 8
M  V30 8 1 5 9
M  V30 9 2 6 10
M  V30 10 1 7 11
M  V30 11 1 8 12
M  V30 12 2 9 13
M  V30 13 1 11 14
M  V30 14 1 11 15
M  V30 15 2 12 16
M  V30 16 2 14 17
M  V30 17 1 14 18
M  V30 18 1 19 15
M  V30 19 1 16 20
M  V30 20 1 19 21 CFG=3
M  V30 21 1 20 22
M  V30 22 1 21 23
M  V30 23 1 22 24
M  V30 24 1 23 25
M  V30 25 1 24 26
M  V30 26 2 25 27
M  V30 27 1 25 28
M  V30 28 2 26 29
M  V30 29 1 26 30
M  V30 30 1 29 31
M  V30 31 2 30 32
M  V30 32 1 7 10
M  V30 33 1 13 16
M  V30 34 1 18 19
M  V30 35 1 31 32
M  V30 END BOND
M  V30 BEGIN COLLECTION
M  V30 MDLV30/STERAC1 ATOMS=(1 19)
M  V30 END COLLECTION
M  V30 END CTAB
M  END
>  <Rack>
PathogenBox_PlateC

>  <Position>
A08

>  <Compound ID>
MMV688327

>  <Disease Set>
TUBERCULOSIS

>  <Trivial Name>
Radezolid

>  <Total Molecular Weight>
474.91

>  <Molecular Weight Parent Molecule>
438.45

>  <Molecular Formula>
C22H23N6O3F

>  <Salt Name>
Hydrochloride

>  <Salt Coefficient>
1

>  <cLogP>
0.88

>  <SMILES>
CC(=O)NCC1CN(C(=O)O1)c2ccc(c(F)c2)c3ccc(CNCc4cn[nH]n4)cc3

$$$$
Compound 168
Actelion Java MolfileCreator 2.0

  0  0  0  0  0  0              0 V3000
M  V30 BEGIN CTAB
M  V30 COUNTS 28 30 0 0 0
M  V30 BEGIN ATOM
M  V30 1 O 8.9669 -3.1852 0.0 0
M  V30 2 C 7.7942 -2.25 0.0 0
M  V30 3 C 10.4293 -2.8514 0.0 0
M  V30 4 C 7.7942 -0.75 0.0 0
M  V30 5 C 6.4952 -3.0 0.0 0
M  V30 6 C 11.0802 -1.5 0.0 0
M  V30 7 C 6.4952 0.0 0.0 0
M  V30 8 C 8.9669 0.1852 0.0 0
M  V30 9 C 5.1961 -2.25 0.0 0
M  V30 10 N 10.4293 -0.1485 0.0 0
M  V30 11 C 5.1961 -0.75 0.0 0
M  V30 12 C 11.3646 1.0242 0.0 0
M  V30 13 C 3.8971 0.0 0.0 0 CFG=1
M  V30 14 C 10.8166 2.4205 0.0 0
M  V30 15 O 4.6471 1.299 0.0 0
M  V30 16 C 2.598 -0.75 0.0 0
M  V30 17 C 3.1471 1.299 0.0 0
M  V30 18 C 11.7518 3.5932 0.0 0
M  V30 19 C 9.3333 2.644 0.0 0
M  V30 20 N 1.299 0.0 0.0 0
M  V30 21 C 11.2038 4.9895 0.0 0
M  V30 22 C 8.7853 4.0403 0.0 0
M  V30 23 C 1.299 1.5 0.0 0
M  V30 24 C 0.0 -0.75 0.0 0
M  V30 25 C 9.7205 5.2131 0.0 0
M  V30 26 C 12.139 6.1623 0.0 0
M  V30 27 O 9.1725 6.6094 0.0 0
M  V30 28 C 7.6893 6.833 0.0 0
M  V30 END ATOM
M  V30 BEGIN BOND
M  V30 1 1 1 2
M  V30 2 1 1 3
M  V30 3 2 2 4
M  V30 4 1 2 5
M  V30 5 1 3 6
M  V30 6 1 4 7
M  V30 7 1 4 8
M  V30 8 2 5 9
M  V30 9 1 6 10
M  V30 10 2 7 11
M  V30 11 1 10 12
M  V30 12 1 13 11
M  V30 13 1 12 14
M  V30 14 1 13 15 CFG=3
M  V30 15 1 13 16
M  V30 16 1 13 17
M  V30 17 2 14 18
M  V30 18 1 14 19
M  V30 19 1 16 20
M  V30 20 1 18 21
M  V30 21 2 19 22
M  V30 22 1 20 23
M  V30 23 1 20 24
M  V30 24 2 21 25
M  V30 25 1 21 26
M  V30 26 1 25 27
M  V30 27 1 27 28
M  V30 28 1 8 10
M  V30 29 1 9 11
M  V30 30 1 22 25
M  V30 END BOND
M  V30 BEGIN COLLECTION
M  V30 MDLV30/STERAC1 ATOMS=(1 13)
M  V30 END COLLECTION
M  V30 END CTAB
M  END
>  <Rack>
PathogenBox_PlateC

>  <Position>
A09

>  <Compound ID>
MMV008439

>  <Disease Set>
MALARIA

>  <Trivial Name>


>  <Total Molecular Weight>
384.52

>  <Molecular Weight Parent Molecule>
384.52

>  <Molecular Formula>
C23H32N2O3

>  <Salt Name>


>  <Salt Coefficient>


>  <cLogP>
2.39

>  <SMILES>
COc1ccc(CN2CCOc3ccc(cc3C2)C(C)(O)CN(C)C)cc1C

$$$$
Compound 169
Actelion Java MolfileCreator 2.0

  0  0  0  0  0  0              0 V3000
M  V30 BEGIN CTAB
M  V30 COUNTS 32 34 0 0 0
M  V30 BEGIN ATOM
M  V30 1 S 3.8971 0.0 0.0 0
M  V30 2 O 4.6471 1.299 0.0 0
M  V30 3 O 3.1471 1.299 0.0 0
M  V30 4 N 2.598 -0.75 0.0 0
M  V30 5 C 5.1961 -0.75 0.0 0
M  V30 6 C 2.598 -2.25 0.0 0
M  V30 7 C 1.299 0.0 0.0 0
M  V30 8 C 5.1961 -2.25 0.0 0
M  V30 9 C 6.4951 0.0 0.0 0
M  V30 10 C 3.8971 -3.0 0.0 0
M  V30 11 C 0.0 -0.75 0.0 0
M  V30 12 C 6.4951 -3.0 0.0 0
M  V30 13 C 7.7942 -0.75 0.0 0
M  V30 14 C 7.7942 -2.25 0.0 0
M  V30 15 C 9.0932 -3.0 0.0 0
M  V30 16 O 10.3923 -2.25 0.0 0
M  V30 17 N 9.0932 -4.5 0.0 0
M  V30 18 C 10.3923 -5.25 0.0 0
M  V30 19 N 10.5491 -6.7417 0.0 0
M  V30 20 C 11.7626 -4.6399 0.0 0
M  V30 21 N 12.0163 -7.0536 0.0 0
M  V30 22 C 9.4343 -7.7454 0.0 0
M  V30 23 C 12.7663 -5.7546 0.0 0
M  V30 24 N 8.0078 -7.2819 0.0 0
M  V30 25 N 9.7462 -9.2127 0.0 0
M  V30 26 C 14.2581 -5.5978 0.0 0
M  V30 27 C 6.893 -8.2856 0.0 0
M  V30 28 C 8.6315 -10.2164 0.0 0
M  V30 29 C 7.2049 -9.7528 0.0 0
M  V30 30 C 5.4665 -7.8221 0.0 0
M  V30 31 O 8.9434 -11.6836 0.0 0
M  V30 32 C 6.0902 -10.7565 0.0 0
M  V30 END ATOM
M  V30 BEGIN BOND
M  V30 1 2 1 2
M  V30 2 2 1 3
M  V30 3 1 1 4
M  V30 4 1 1 5
M  V30 5 1 4 6
M  V30 6 1 4 7
M  V30 7 2 5 8
M  V30 8 1 5 9
M  V30 9 1 6 10
M  V30 10 1 7 11
M  V30 11 1 8 12
M  V30 12 2 9 13
M  V30 13 2 12 14
M  V30 14 1 14 15
M  V30 15 2 15 16
M  V30 16 1 15 17
M  V30 17 1 17 18
M  V30 18 1 18 19
M  V30 19 2 18 20
M  V30 20 1 19 21
M  V30 21 1 19 22
M  V30 22 1 20 23
M  V30 23 2 22 24
M  V30 24 1 22 25
M  V30 25 1 23 26
M  V30 26 1 24 27
M  V30 27 1 25 28
M  V30 28 2 27 29
M  V30 29 1 27 30
M  V30 30 2 28 31
M  V30 31 1 29 32
M  V30 32 1 13 14
M  V30 33 2 21 23
M  V30 34 1 28 29
M  V30 END BOND
M  V30 END CTAB
M  END
>  <Rack>
PathogenBox_PlateC

>  <Position>
A10

>  <Compound ID>
MMV595321

>  <Disease Set>
KINETOPLASTIDS

>  <Trivial Name>


>  <Total Molecular Weight>
458.54

>  <Molecular Weight Parent Molecule>
458.54

>  <Molecular Formula>
C21H26N6O4S

>  <Salt Name>


>  <Salt Coefficient>


>  <cLogP>
2.38

>  <SMILES>
CC1=C(C)C(NC(N2N=C(C)C=C2NC(C3=CC=C(S(=O)(N(CC)CC)=O)C=C3)=O)=N1)=O

$$$$
Compound 170
Actelion Java MolfileCreator 2.0

  0  0  0  0  0  0              0 V3000
M  V30 BEGIN CTAB
M  V30 COUNTS 24 26 0 0 0
M  V30 BEGIN ATOM
M  V30 1 Br 6.9282 2.4999 0.0 0
M  V30 2 C 6.9282 1.4999 0.0 0
M  V30 3 C 6.0621 1.0 0.0 0
M  V30 4 C 7.7942 0.9999 0.0 0
M  V30 5 C 6.0621 0.0 0.0 0
M  V30 6 C 7.7942 0.0 0.0 0
M  V30 7 C 5.1961 -0.5 0.0 0
M  V30 8 C 6.9282 -0.5 0.0 0
M  V30 9 O 4.3301 0.0 0.0 0
M  V30 10 C 5.1961 -1.5 0.0 0
M  V30 11 N 6.9282 -1.5 0.0 0
M  V30 12 C 3.4641 -0.5 0.0 0
M  V30 13 C 6.0621 -2.0 0.0 0
M  V30 14 C 2.598 0.0 0.0 0
M  V30 15 C 6.0621 -3.0 0.0 0
M  V30 16 O 2.598 1.0 0.0 0
M  V30 17 N 1.732 -0.5 0.0 0
M  V30 18 C 0.866 0.0 0.0 0
M  V30 19 C 0.0 -0.5 0.0 0
M  V30 20 C -0.866 0.0 0.0 0
M  V30 21 C 0.0 -1.4999 0.0 0
M  V30 22 C -1.732 -0.4999 0.0 0
M  V30 23 C -0.866 -1.9999 0.0 0
M  V30 24 C -1.732 -1.4999 0.0 0
M  V30 END ATOM
M  V30 BEGIN BOND
M  V30 1 1 1 2
M  V30 2 2 2 3
M  V30 3 1 2 4
M  V30 4 1 3 5
M  V30 5 2 4 6
M  V30 6 2 5 7
M  V30 7 1 5 8
M  V30 8 1 7 9
M  V30 9 1 7 10
M  V30 10 2 8 11
M  V30 11 1 9 12
M  V30 12 2 10 13
M  V30 13 1 12 14
M  V30 14 1 13 15
M  V30 15 2 14 16
M  V30 16 1 14 17
M  V30 17 1 17 18
M  V30 18 1 18 19
M  V30 19 2 19 20
M  V30 20 1 19 21
M  V30 21 1 20 22
M  V30 22 2 21 23
M  V30 23 2 22 24
M  V30 24 1 6 8
M  V30 25 1 11 13
M  V30 26 1 23 24
M  V30 END BOND
M  V30 END CTAB
M  END
>  <Rack>
PathogenBox_PlateC

>  <Position>
A11

>  <Compound ID>
MMV687747

>  <Disease Set>
TUBERCULOSIS

>  <Trivial Name>


>  <Total Molecular Weight>
385.25

>  <Molecular Weight Parent Molecule>
385.25

>  <Molecular Formula>
C19H17N2O2Br

>  <Salt Name>


>  <Salt Coefficient>


>  <cLogP>
3.53

>  <SMILES>
Cc1cc(OCC(=O)NCc2ccccc2)c3cc(Br)ccc3n1

$$$$
Compound 171
Actelion Java MolfileCreator 2.0

  0  0  0  0  0  0              0 V3000
M  V30 BEGIN CTAB
M  V30 COUNTS 25 27 0 0 0
M  V30 BEGIN ATOM
M  V30 1 Cl 9.0932 0.0 0.0 0
M  V30 2 C 7.7942 -0.75 0.0 0
M  V30 3 C 6.4951 0.0 0.0 0
M  V30 4 C 7.7942 -2.25 0.0 0
M  V30 5 C 5.1961 -0.75 0.0 0
M  V30 6 C 6.4951 -3.0 0.0 0
M  V30 7 N 3.8971 0.0 0.0 0
M  V30 8 C 5.1961 -2.25 0.0 0
M  V30 9 C 3.8971 1.5 0.0 0
M  V30 10 N 3.8971 -2.9999 0.0 0
M  V30 11 C 2.598 2.25 0.0 0
M  V30 12 C 5.1961 2.25 0.0 0
M  V30 13 C 2.598 -2.2499 0.0 0
M  V30 14 C 3.8971 -4.4999 0.0 0
M  V30 15 O 1.299 1.4999 0.0 0
M  V30 16 N 2.598 3.75 0.0 0
M  V30 17 C 1.299 -2.9999 0.0 0
M  V30 18 C 2.598 -5.2499 0.0 0
M  V30 19 C 1.299 4.4999 0.0 0
M  V30 20 C 3.8971 4.5 0.0 0
M  V30 21 O 1.299 -4.4999 0.0 0
M  V30 22 C 1.299 6.0 0.0 0
M  V30 23 C 3.8971 6.0 0.0 0
M  V30 24 C 2.598 6.7499 0.0 0
M  V30 25 C 0.0 6.7499 0.0 0
M  V30 END ATOM
M  V30 BEGIN BOND
M  V30 1 1 1 2
M  V30 2 2 2 3
M  V30 3 1 2 4
M  V30 4 1 3 5
M  V30 5 2 4 6
M  V30 6 1 5 7
M  V30 7 2 5 8
M  V30 8 1 7 9
M  V30 9 1 8 10
M  V30 10 1 9 11
M  V30 11 1 9 12
M  V30 12 1 10 13
M  V30 13 1 10 14
M  V30 14 2 11 15
M  V30 15 1 11 16
M  V30 16 1 13 17
M  V30 17 1 14 18
M  V30 18 1 16 19
M  V30 19 1 16 20
M  V30 20 1 17 21
M  V30 21 1 19 22
M  V30 22 1 20 23
M  V30 23 1 22 24
M  V30 24 1 22 25
M  V30 25 1 6 8
M  V30 26 1 18 21
M  V30 27 1 23 24
M  V30 END BOND
M  V30 END CTAB
M  END
>  <Rack>
PathogenBox_PlateC

>  <Position>
B02

>  <Compound ID>
MMV020388

>  <Disease Set>
MALARIA

>  <Trivial Name>


>  <Total Molecular Weight>
365.90

>  <Molecular Weight Parent Molecule>
365.90

>  <Molecular Formula>
C19H28N3O2Cl

>  <Salt Name>


>  <Salt Coefficient>


>  <cLogP>
2.69

>  <SMILES>
CC(Nc1cc(Cl)ccc1N2CCOCC2)C(=O)N3CCCC(C)C3

$$$$
Compound 172
Actelion Java MolfileCreator 2.0

  0  0  0  0  0  0              0 V3000
M  V30 BEGIN CTAB
M  V30 COUNTS 29 33 0 0 0
M  V30 BEGIN ATOM
M  V30 1 O 0.866 0.0 0.0 0
M  V30 2 C 1.732 -0.5 0.0 0
M  V30 3 C 0.0 -0.5 0.0 0
M  V30 4 C 1.732 -1.5 0.0 0
M  V30 5 C 2.598 0.0 0.0 0
M  V30 6 C 0.866 -1.9999 0.0 0
M  V30 7 C 2.598 -2.0 0.0 0
M  V30 8 C 3.4641 -0.5 0.0 0
M  V30 9 N -0.0475 -1.5932 0.0 0
M  V30 10 C 0.7614 -2.9945 0.0 0
M  V30 11 C 3.4641 -1.5 0.0 0
M  V30 12 N -0.7166 -2.3364 0.0 0
M  V30 13 N -0.2166 -3.2024 0.0 0
M  V30 14 C 4.3301 -2.0 0.0 0
M  V30 15 C -0.6233 -4.1159 0.0 0
M  V30 16 N 4.4346 -2.9945 0.0 0
M  V30 17 N 5.2436 -1.5932 0.0 0
M  V30 18 C -1.6179 -4.2205 0.0 0
M  V30 19 C -0.0356 -4.9249 0.0 0
M  V30 20 C 5.4128 -3.2024 0.0 0
M  V30 21 C 5.9128 -2.3364 0.0 0
M  V30 22 C -2.0246 -5.134 0.0 0
M  V30 23 C -0.4423 -5.8385 0.0 0
M  V30 24 C -3.0191 -5.2385 0.0 0
M  V30 25 C -1.4368 -5.943 0.0 0
M  V30 26 N -3.6882 -4.4954 0.0 0
M  V30 27 N -3.5191 -6.1046 0.0 0
M  V30 28 C -4.6018 -4.9021 0.0 0
M  V30 29 C -4.4973 -5.8966 0.0 0
M  V30 END ATOM
M  V30 BEGIN BOND
M  V30 1 1 1 2
M  V30 2 1 1 3
M  V30 3 2 2 4
M  V30 4 1 2 5
M  V30 5 1 4 6
M  V30 6 1 4 7
M  V30 7 2 5 8
M  V30 8 1 6 9
M  V30 9 2 6 10
M  V30 10 2 7 11
M  V30 11 2 9 12
M  V30 12 1 10 13
M  V30 13 1 11 14
M  V30 14 1 13 15
M  V30 15 2 14 16
M  V30 16 1 14 17
M  V30 17 2 15 18
M  V30 18 1 15 19
M  V30 19 1 16 20
M  V30 20 1 17 21
M  V30 21 1 18 22
M  V30 22 2 19 23
M  V30 23 1 22 24
M  V30 24 2 22 25
M  V30 25 2 24 26
M  V30 26 1 24 27
M  V30 27 1 26 28
M  V30 28 1 27 29
M  V30 29 1 8 11
M  V30 30 1 12 13
M  V30 31 1 20 21
M  V30 32 1 23 25
M  V30 33 1 28 29
M  V30 END BOND
M  V30 END CTAB
M  END
>  <Rack>
PathogenBox_PlateC

>  <Position>
B03

>  <Compound ID>
MMV688547

>  <Disease Set>
KINETOPLASTIDS

>  <Trivial Name>


>  <Total Molecular Weight>
613.47

>  <Molecular Weight Parent Molecule>
387.44

>  <Molecular Formula>
C21H21N7O

>  <Salt Name>
Trifluoroacetate

>  <Salt Coefficient>
2

>  <cLogP>
0.90

>  <SMILES>
COc1ccc(cc1c2cn(nn2)c3cccc(c3)C4=NCCN4)C5=NCCN5

$$$$
Compound 173
Actelion Java MolfileCreator 2.0

  0  0  0  0  0  0              0 V3000
M  V30 BEGIN CTAB
M  V30 COUNTS 33 36 0 0 0
M  V30 BEGIN ATOM
M  V30 1 S 6.4951 0.0 0.0 0
M  V30 2 O 7.2451 1.299 0.0 0
M  V30 3 O 5.7451 1.299 0.0 0
M  V30 4 C 7.7942 -0.75 0.0 0
M  V30 5 C 5.1961 -0.75 0.0 0
M  V30 6 C 7.7942 -2.25 0.0 0
M  V30 7 C 9.0932 0.0 0.0 0
M  V30 8 C 3.8971 0.0 0.0 0
M  V30 9 C 9.0932 -3.0 0.0 0
M  V30 10 C 10.3923 -0.75 0.0 0
M  V30 11 N 2.598 -0.75 0.0 0
M  V30 12 N 9.0932 -4.5 0.0 0
M  V30 13 C 10.3923 -2.25 0.0 0
M  V30 14 C 1.299 0.0 0.0 0
M  V30 15 C 10.3923 -5.25 0.0 0
M  V30 16 C 0.0 -0.75 0.0 0
M  V30 17 N 10.3923 -6.75 0.0 0
M  V30 18 C 11.6913 -4.5 0.0 0
M  V30 19 N -1.3703 -0.1398 0.0 0
M  V30 20 N -0.1567 -2.2417 0.0 0
M  V30 21 C 11.6913 -7.5 0.0 0
M  V30 22 C 12.9903 -5.25 0.0 0
M  V30 23 C -2.374 -1.2546 0.0 0
M  V30 24 C -1.624 -2.5536 0.0 0
M  V30 25 C 0.9579 -3.2454 0.0 0
M  V30 26 C 12.9903 -6.75 0.0 0
M  V30 27 C 14.2894 -7.5 0.0 0
M  V30 28 C 14.2894 -9.0 0.0 0
M  V30 29 C 15.5884 -6.75 0.0 0
M  V30 30 C 15.5884 -9.75 0.0 0
M  V30 31 C 16.8875 -7.5 0.0 0
M  V30 32 F 15.5884 -11.25 0.0 0
M  V30 33 C 16.8875 -9.0 0.0 0
M  V30 END ATOM
M  V30 BEGIN BOND
M  V30 1 2 1 2
M  V30 2 2 1 3
M  V30 3 1 1 4
M  V30 4 1 1 5
M  V30 5 2 4 6
M  V30 6 1 4 7
M  V30 7 1 5 8
M  V30 8 1 6 9
M  V30 9 2 7 10
M  V30 10 1 8 11
M  V30 11 1 9 12
M  V30 12 2 9 13
M  V30 13 1 11 14
M  V30 14 1 12 15
M  V30 15 1 14 16
M  V30 16 2 15 17
M  V30 17 1 15 18
M  V30 18 2 16 19
M  V30 19 1 16 20
M  V30 20 1 17 21
M  V30 21 2 18 22
M  V30 22 1 19 23
M  V30 23 1 20 24
M  V30 24 1 20 25
M  V30 25 2 21 26
M  V30 26 1 26 27
M  V30 27 2 27 28
M  V30 28 1 27 29
M  V30 29 1 28 30
M  V30 30 2 29 31
M  V30 31 1 30 32
M  V30 32 2 30 33
M  V30 33 1 10 13
M  V30 34 1 22 26
M  V30 35 2 23 24
M  V30 36 1 31 33
M  V30 END BOND
M  V30 END CTAB
M  END
>  <Rack>
PathogenBox_PlateC

>  <Position>
B04

>  <Compound ID>
MMV688466

>  <Disease Set>
TUBERCULOSIS

>  <Trivial Name>


>  <Total Molecular Weight>
502.00

>  <Molecular Weight Parent Molecule>
465.54

>  <Molecular Formula>
C24H24N5O2FS

>  <Salt Name>
Hydrochloride

>  <Salt Coefficient>
1

>  <cLogP>
2.43

>  <SMILES>
Cn1ccnc1CNCCS(=O)(=O)c2cccc(Nc3ccc(cn3)c4cccc(F)c4)c2

$$$$
Compound 174
Actelion Java MolfileCreator 2.0

  0  0  0  0  0  0              0 V3000
M  V30 BEGIN CTAB
M  V30 COUNTS 31 35 0 0 0
M  V30 BEGIN ATOM
M  V30 1 O 1.299 0.0 0.0 0
M  V30 2 C 2.598 -0.75 0.0 0
M  V30 3 C 0.0 -0.75 0.0 0
M  V30 4 N 2.598 -2.25 0.0 0
M  V30 5 C 3.8971 0.0 0.0 0
M  V30 6 C -1.299 0.0 0.0 0
M  V30 7 C 0.0 -2.25 0.0 0
M  V30 8 C 3.8971 -3.0 0.0 0
M  V30 9 C 5.1961 -0.75 0.0 0
M  V30 10 C -2.598 -0.7499 0.0 0
M  V30 11 C -1.299 -2.9999 0.0 0
M  V30 12 N 5.1961 -2.25 0.0 0
M  V30 13 N 3.8971 -4.5 0.0 0
M  V30 14 C -2.598 -2.2499 0.0 0
M  V30 15 C 2.598 -5.25 0.0 0
M  V30 16 C 5.1961 -5.25 0.0 0
M  V30 17 N -3.8971 -2.9999 0.0 0
M  V30 18 C 2.598 -6.75 0.0 0 CFG=2
M  V30 19 C 5.1961 -6.75 0.0 0
M  V30 20 C -5.2674 -2.3898 0.0 0
M  V30 21 C -4.0539 -4.4917 0.0 0
M  V30 22 N 3.8971 -7.5 0.0 0
M  V30 23 C 1.299 -7.5 0.0 0
M  V30 24 N -6.2711 -3.5046 0.0 0
M  V30 25 C -5.5211 -4.8036 0.0 0
M  V30 26 C 1.299 -9.0 0.0 0
M  V30 27 C 0.0 -9.75 0.0 0
M  V30 28 C 2.598 -9.75 0.0 0
M  V30 29 C 0.0 -11.25 0.0 0
M  V30 30 C 2.598 -11.25 0.0 0
M  V30 31 C 1.299 -12.0 0.0 0
M  V30 END ATOM
M  V30 BEGIN BOND
M  V30 1 1 1 2
M  V30 2 1 1 3
M  V30 3 2 2 4
M  V30 4 1 2 5
M  V30 5 2 3 6
M  V30 6 1 3 7
M  V30 7 1 4 8
M  V30 8 2 5 9
M  V30 9 1 6 10
M  V30 10 2 7 11
M  V30 11 2 8 12
M  V30 12 1 8 13
M  V30 13 2 10 14
M  V30 14 1 13 15
M  V30 15 1 13 16
M  V30 16 1 14 17
M  V30 17 1 18 15
M  V30 18 1 16 19
M  V30 19 1 17 20
M  V30 20 1 17 21
M  V30 21 1 18 22
M  V30 22 1 18 23 CFG=3
M  V30 23 2 20 24
M  V30 24 2 21 25
M  V30 25 1 23 26
M  V30 26 2 26 27
M  V30 27 1 26 28
M  V30 28 1 27 29
M  V30 29 2 28 30
M  V30 30 2 29 31
M  V30 31 1 9 12
M  V30 32 1 11 14
M  V30 33 1 19 22
M  V30 34 1 24 25
M  V30 35 1 30 31
M  V30 END BOND
M  V30 BEGIN COLLECTION
M  V30 MDLV30/STEABS ATOMS=(1 18)
M  V30 END COLLECTION
M  V30 END CTAB
M  END
>  <Rack>
PathogenBox_PlateC

>  <Position>
B05

>  <Compound ID>
MMV687749

>  <Disease Set>
TUBERCULOSIS

>  <Trivial Name>


>  <Total Molecular Weight>
448.95

>  <Molecular Weight Parent Molecule>
412.49

>  <Molecular Formula>
C24H24N6O

>  <Salt Name>
Hydrochloride

>  <Salt Coefficient>
1

>  <cLogP>
3.13

>  <SMILES>
C([C@@H]1CN(CCN1)c2nccc(Oc3ccc(cc3)n4ccnc4)n2)c5ccccc5

$$$$
Compound 175
Actelion Java MolfileCreator 2.0

  0  0  0  0  0  0              0 V3000
M  V30 BEGIN CTAB
M  V30 COUNTS 26 28 0 0 0
M  V30 BEGIN ATOM
M  V30 1 Cl 6.9282 -3.5 0.0 0
M  V30 2 C 6.0621 -3.0 0.0 0
M  V30 3 C 6.0621 -2.0 0.0 0
M  V30 4 C 5.1961 -3.4999 0.0 0
M  V30 5 C 5.1961 -1.5 0.0 0
M  V30 6 C 6.9282 -1.5 0.0 0
M  V30 7 C 4.3301 -2.9999 0.0 0
M  V30 8 C 4.3301 -2.0 0.0 0
M  V30 9 F 6.4282 -0.6339 0.0 0
M  V30 10 F 7.7942 -1.0 0.0 0
M  V30 11 F 7.4282 -2.366 0.0 0
M  V30 12 C 3.4641 -1.4999 0.0 0
M  V30 13 O 4.3301 -0.9999 0.0 0
M  V30 14 C 3.4641 -0.5 0.0 0
M  V30 15 C 2.598 -1.9999 0.0 0
M  V30 16 C 2.598 0.0 0.0 0
M  V30 17 C 1.732 -1.5 0.0 0
M  V30 18 N 1.732 -0.5 0.0 0
M  V30 19 C 0.866 0.0 0.0 0
M  V30 20 C 0.0 -0.5 0.0 0
M  V30 21 C -0.866 0.0 0.0 0
M  V30 22 C 0.0 -1.4999 0.0 0
M  V30 23 C -1.732 -0.4999 0.0 0
M  V30 24 C -0.866 1.0 0.0 0
M  V30 25 C -0.866 -1.9999 0.0 0
M  V30 26 C -1.732 -1.4999 0.0 0
M  V30 END ATOM
M  V30 BEGIN BOND
M  V30 1 1 1 2
M  V30 2 2 2 3
M  V30 3 1 2 4
M  V30 4 1 3 5
M  V30 5 1 3 6
M  V30 6 2 4 7
M  V30 7 2 5 8
M  V30 8 1 6 9
M  V30 9 1 6 10
M  V30 10 1 6 11
M  V30 11 1 8 12
M  V30 12 1 12 13
M  V30 13 1 12 14
M  V30 14 1 12 15
M  V30 15 1 14 16
M  V30 16 1 15 17
M  V30 17 1 16 18
M  V30 18 1 18 19
M  V30 19 1 19 20
M  V30 20 2 20 21
M  V30 21 1 20 22
M  V30 22 1 21 23
M  V30 23 1 21 24
M  V30 24 2 22 25
M  V30 25 2 23 26
M  V30 26 1 7 8
M  V30 27 1 17 18
M  V30 28 1 25 26
M  V30 END BOND
M  V30 END CTAB
M  END
>  <Rack>
PathogenBox_PlateC

>  <Position>
B06

>  <Compound ID>
MMV688846

>  <Disease Set>
TUBERCULOSIS

>  <Trivial Name>


>  <Total Molecular Weight>
383.84

>  <Molecular Weight Parent Molecule>
383.84

>  <Molecular Formula>
C20H21NOClF3

>  <Salt Name>


>  <Salt Coefficient>


>  <cLogP>
4.95

>  <SMILES>
Cc1ccccc1CN2CCC(O)(CC2)c3ccc(Cl)c(c3)C(F)(F)F

$$$$
Compound 176
Actelion Java MolfileCreator 2.0

  0  0  0  0  0  0              0 V3000
M  V30 BEGIN CTAB
M  V30 COUNTS 18 20 0 0 0
M  V30 BEGIN ATOM
M  V30 1 O 1.732 -0.5 0.0 0
M  V30 2 C 0.866 0.0 0.0 0
M  V30 3 N 0.866 1.0 0.0 0
M  V30 4 C 0.0 -0.5 0.0 0
M  V30 5 C 1.675 1.5877 0.0 0
M  V30 6 C 0.057 1.5877 0.0 0
M  V30 7 C 1.366 2.5388 0.0 0
M  V30 8 C 2.6531 1.3798 0.0 0
M  V30 9 C 0.366 2.5388 0.0 0
M  V30 10 C 2.0351 3.2819 0.0 0
M  V30 11 C 3.3223 2.123 0.0 0
M  V30 12 C 3.0133 3.074 0.0 0
M  V30 13 C 4.3004 1.9151 0.0 0
M  V30 14 N 3.6824 3.8172 0.0 0
M  V30 15 C 4.9695 2.6582 0.0 0
M  V30 16 C 4.6094 0.964 0.0 0
M  V30 17 C 4.6605 3.6093 0.0 0
M  V30 18 C 5.3297 4.3524 0.0 0
M  V30 END ATOM
M  V30 BEGIN BOND
M  V30 1 2 1 2
M  V30 2 1 2 3
M  V30 3 1 2 4
M  V30 4 1 3 5
M  V30 5 1 3 6
M  V30 6 1 5 7
M  V30 7 2 5 8
M  V30 8 1 6 9
M  V30 9 2 7 10
M  V30 10 1 8 11
M  V30 11 1 10 12
M  V30 12 2 11 13
M  V30 13 2 12 14
M  V30 14 1 13 15
M  V30 15 1 13 16
M  V30 16 1 14 17
M  V30 17 1 17 18
M  V30 18 1 7 9
M  V30 19 1 11 12
M  V30 20 2 15 17
M  V30 END BOND
M  V30 END CTAB
M  END
>  <Rack>
PathogenBox_PlateC

>  <Position>
B07

>  <Compound ID>
MMV054312

>  <Disease Set>
TUBERCULOSIS

>  <Trivial Name>


>  <Total Molecular Weight>
240.31

>  <Molecular Weight Parent Molecule>
240.31

>  <Molecular Formula>
C15H16N2O

>  <Salt Name>


>  <Salt Coefficient>


>  <cLogP>
2.81

>  <SMILES>
CC(=O)N1CCc2cc3nc(C)cc(C)c3cc12

$$$$
Compound 177
Actelion Java MolfileCreator 2.0

  0  0  0  0  0  0              0 V3000
M  V30 BEGIN CTAB
M  V30 COUNTS 20 22 0 0 0
M  V30 BEGIN ATOM
M  V30 1 Cl 2.598 -3.0 0.0 0
M  V30 2 C 2.598 -1.9999 0.0 0
M  V30 3 C 3.4641 -1.5 0.0 0
M  V30 4 C 1.732 -1.5 0.0 0
M  V30 5 Cl 4.3301 -2.0 0.0 0
M  V30 6 C 3.4641 -0.5 0.0 0
M  V30 7 C 1.732 -0.5 0.0 0
M  V30 8 C 2.598 0.0 0.0 0
M  V30 9 C 0.866 0.0 0.0 0
M  V30 10 N 0.0 -0.5 0.0 0
M  V30 11 C -0.866 0.0 0.0 0
M  V30 12 C 0.0 -1.4999 0.0 0
M  V30 13 C -1.732 -0.4999 0.0 0
M  V30 14 C -0.866 -1.9999 0.0 0
M  V30 15 N -1.732 -1.4999 0.0 0
M  V30 16 C -2.598 -1.9999 0.0 0
M  V30 17 N -3.5116 -1.5932 0.0 0
M  V30 18 N -2.7026 -2.9945 0.0 0
M  V30 19 C -4.1807 -2.3364 0.0 0
M  V30 20 C -3.6807 -3.2024 0.0 0
M  V30 END ATOM
M  V30 BEGIN BOND
M  V30 1 1 1 2
M  V30 2 2 2 3
M  V30 3 1 2 4
M  V30 4 1 3 5
M  V30 5 1 3 6
M  V30 6 2 4 7
M  V30 7 2 6 8
M  V30 8 1 7 9
M  V30 9 1 9 10
M  V30 10 1 10 11
M  V30 11 1 10 12
M  V30 12 1 11 13
M  V30 13 1 12 14
M  V30 14 1 13 15
M  V30 15 1 15 16
M  V30 16 2 16 17
M  V30 17 1 16 18
M  V30 18 1 17 19
M  V30 19 1 18 20
M  V30 20 1 7 8
M  V30 21 1 14 15
M  V30 22 1 19 20
M  V30 END BOND
M  V30 END CTAB
M  END
>  <Rack>
PathogenBox_PlateC

>  <Position>
B08

>  <Compound ID>
MMV689060

>  <Disease Set>
KINETOPLASTIDS

>  <Trivial Name>


>  <Total Molecular Weight>
313.23

>  <Molecular Weight Parent Molecule>
313.23

>  <Molecular Formula>
C14H18N4Cl2

>  <Salt Name>


>  <Salt Coefficient>


>  <cLogP>
2.29

>  <SMILES>
Clc1ccc(CN2CCN(CC2)C3=NCCN3)cc1Cl

$$$$
Compound 178
Actelion Java MolfileCreator 2.0

  0  0  0  0  0  0              0 V3000
M  V30 BEGIN CTAB
M  V30 COUNTS 31 34 0 0 0
M  V30 BEGIN ATOM
M  V30 1 F 13.3783 -2.3404 0.0 0
M  V30 2 C 12.3838 -2.2358 0.0 0
M  V30 3 C 11.9771 -1.3223 0.0 0
M  V30 4 C 11.796 -3.0449 0.0 0
M  V30 5 C 10.9826 -1.2178 0.0 0
M  V30 6 C 12.5649 -0.5133 0.0 0
M  V30 7 C 10.8015 -2.9403 0.0 0
M  V30 8 C 10.3948 -2.0268 0.0 0
M  V30 9 C 10.5758 -0.3042 0.0 0
M  V30 10 N 9.5813 -0.1997 0.0 0
M  V30 11 C 9.1746 0.7138 0.0 0
M  V30 12 C 8.9935 -1.0087 0.0 0
M  V30 13 C 8.18 0.8183 0.0 0 CFG=2
M  V30 14 C 7.999 -0.9042 0.0 0
M  V30 15 C 7.5923 0.0093 0.0 0
M  V30 16 C 7.7733 1.7318 0.0 0
M  V30 17 C 6.7788 1.8364 0.0 0
M  V30 18 O 6.2788 2.7024 0.0 0
M  V30 19 N 6.1096 1.0932 0.0 0
M  V30 20 N 5.3006 2.4945 0.0 0
M  V30 21 C 5.1961 1.5 0.0 0
M  V30 22 C 4.3301 1.0 0.0 0
M  V30 23 C 3.4641 1.5 0.0 0
M  V30 24 C 4.3301 0.0 0.0 0
M  V30 25 C 2.598 0.9999 0.0 0
M  V30 26 C 3.4641 -0.4999 0.0 0
M  V30 27 C 2.598 0.0 0.0 0
M  V30 28 N 1.732 -0.5 0.0 0
M  V30 29 C 0.866 0.0 0.0 0
M  V30 30 O 0.866 1.0 0.0 0
M  V30 31 C 0.0 -0.5 0.0 0
M  V30 END ATOM
M  V30 BEGIN BOND
M  V30 1 1 1 2
M  V30 2 2 2 3
M  V30 3 1 2 4
M  V30 4 1 3 5
M  V30 5 1 3 6
M  V30 6 2 4 7
M  V30 7 2 5 8
M  V30 8 1 5 9
M  V30 9 1 9 10
M  V30 10 1 10 11
M  V30 11 1 10 12
M  V30 12 1 13 11
M  V30 13 1 12 14
M  V30 14 1 13 15
M  V30 15 1 13 16 CFG=3
M  V30 16 1 16 17
M  V30 17 1 17 18
M  V30 18 2 17 19
M  V30 19 1 18 20
M  V30 20 1 19 21
M  V30 21 1 21 22
M  V30 22 2 22 23
M  V30 23 1 22 24
M  V30 24 1 23 25
M  V30 25 2 24 26
M  V30 26 2 25 27
M  V30 27 1 27 28
M  V30 28 1 28 29
M  V30 29 2 29 30
M  V30 30 1 29 31
M  V30 31 1 7 8
M  V30 32 1 14 15
M  V30 33 2 20 21
M  V30 34 1 26 27
M  V30 END BOND
M  V30 BEGIN COLLECTION
M  V30 MDLV30/STERAC1 ATOMS=(1 13)
M  V30 END COLLECTION
M  V30 END CTAB
M  END
>  <Rack>
PathogenBox_PlateC

>  <Position>
B09

>  <Compound ID>
MMV689061

>  <Disease Set>
KINETOPLASTIDS

>  <Trivial Name>


>  <Total Molecular Weight>
422.50

>  <Molecular Weight Parent Molecule>
422.50

>  <Molecular Formula>
C24H27N4O2F

>  <Salt Name>


>  <Salt Coefficient>


>  <cLogP>
4.09

>  <SMILES>
CC1=C(F)C=CC=C1CN2CCCC(CC3=NC(C4=CC=C(NC(C)=O)C=C4)=NO3)C2

$$$$
Compound 179
Actelion Java MolfileCreator 2.0

  0  0  0  0  0  0              0 V3000
M  V30 BEGIN CTAB
M  V30 COUNTS 34 37 0 0 0
M  V30 BEGIN ATOM
M  V30 1 S 2.598 -0.75 0.0 0
M  V30 2 O 1.848 -2.049 0.0 0
M  V30 3 O 3.348 -2.049 0.0 0
M  V30 4 N 1.299 0.0 0.0 0
M  V30 5 C 3.8971 0.0 0.0 0
M  V30 6 C 0.0 -0.75 0.0 0
M  V30 7 C 5.1961 -0.75 0.0 0
M  V30 8 C 3.8971 1.5 0.0 0
M  V30 9 C -1.299 0.0 0.0 0
M  V30 10 C 0.0 -2.25 0.0 0
M  V30 11 C 6.4951 0.0 0.0 0
M  V30 12 C 5.1961 2.25 0.0 0
M  V30 13 C -2.598 -0.75 0.0 0
M  V30 14 C -1.299 -3.0 0.0 0
M  V30 15 C 6.4951 1.5 0.0 0
M  V30 16 C -2.598 -2.25 0.0 0
M  V30 17 C 7.7942 2.25 0.0 0
M  V30 18 C -3.8971 -3.0 0.0 0
M  V30 19 N -3.8971 -4.5 0.0 0
M  V30 20 C -5.1961 -5.25 0.0 0
M  V30 21 C -2.598 -5.25 0.0 0
M  V30 22 C -5.1961 -6.75 0.0 0
M  V30 23 C -2.598 -6.75 0.0 0
M  V30 24 N -3.8971 -7.5 0.0 0
M  V30 25 C -3.8971 -9.0 0.0 0
M  V30 26 O -5.1961 -9.75 0.0 0
M  V30 27 C -2.598 -9.75 0.0 0
M  V30 28 C -2.598 -11.25 0.0 0
M  V30 29 C -1.299 -9.0 0.0 0
M  V30 30 C -1.299 -12.0 0.0 0
M  V30 31 C 0.0 -9.75 0.0 0
M  V30 32 C -1.299 -13.5 0.0 0
M  V30 33 C 0.0 -11.25 0.0 0
M  V30 34 N -1.299 -15.0 0.0 0
M  V30 END ATOM
M  V30 BEGIN BOND
M  V30 1 2 1 2
M  V30 2 2 1 3
M  V30 3 1 1 4
M  V30 4 1 1 5
M  V30 5 1 4 6
M  V30 6 2 5 7
M  V30 7 1 5 8
M  V30 8 2 6 9
M  V30 9 1 6 10
M  V30 10 1 7 11
M  V30 11 2 8 12
M  V30 12 1 9 13
M  V30 13 2 10 14
M  V30 14 2 11 15
M  V30 15 2 13 16
M  V30 16 1 15 17
M  V30 17 1 16 18
M  V30 18 1 18 19
M  V30 19 1 19 20
M  V30 20 1 19 21
M  V30 21 1 20 22
M  V30 22 1 21 23
M  V30 23 1 22 24
M  V30 24 1 24 25
M  V30 25 2 25 26
M  V30 26 1 25 27
M  V30 27 2 27 28
M  V30 28 1 27 29
M  V30 29 1 28 30
M  V30 30 2 29 31
M  V30 31 1 30 32
M  V30 32 2 30 33
M  V30 33 3 32 34
M  V30 34 1 12 15
M  V30 35 1 14 16
M  V30 36 1 23 24
M  V30 37 1 31 33
M  V30 END BOND
M  V30 END CTAB
M  END
>  <Rack>
PathogenBox_PlateC

>  <Position>
B10

>  <Compound ID>
MMV689028

>  <Disease Set>
KINETOPLASTIDS

>  <Trivial Name>


>  <Total Molecular Weight>
474.57

>  <Molecular Weight Parent Molecule>
474.57

>  <Molecular Formula>
C26H26N4O3S

>  <Salt Name>


>  <Salt Coefficient>


>  <cLogP>
3.34

>  <SMILES>
O=C(N1CCN(CC2=CC=C(NS(=O)(C3=CC=C(C)C=C3)=O)C=C2)CC1)C4=CC(C#N)=CC=C4

$$$$
Compound 180
Actelion Java MolfileCreator 2.0

  0  0  0  0  0  0              0 V3000
M  V30 BEGIN CTAB
M  V30 COUNTS 29 31 0 0 0
M  V30 BEGIN ATOM
M  V30 1 Cl 5.1961 -1.4999 0.0 0
M  V30 2 C 5.1961 -0.5 0.0 0
M  V30 3 C 4.3301 0.0 0.0 0
M  V30 4 C 6.0621 0.0 0.0 0
M  V30 5 C 3.4641 -0.5 0.0 0
M  V30 6 C 4.3301 0.9999 0.0 0
M  V30 7 C 6.0621 0.9999 0.0 0
M  V30 8 O 3.4641 -1.5 0.0 0
M  V30 9 N 2.598 0.0 0.0 0
M  V30 10 C 5.1961 1.4999 0.0 0
M  V30 11 Cl 6.9282 1.4999 0.0 0
M  V30 12 C 2.598 1.0 0.0 0
M  V30 13 C 1.732 -0.5 0.0 0
M  V30 14 C 3.4641 1.5 0.0 0
M  V30 15 C 1.732 1.4999 0.0 0
M  V30 16 C 0.866 0.0 0.0 0
M  V30 17 C 3.4641 2.5 0.0 0
M  V30 18 C 1.732 2.4999 0.0 0
M  V30 19 N 0.0 -0.5 0.0 0
M  V30 20 C 2.598 3.0 0.0 0
M  V30 21 O 2.598 4.0 0.0 0
M  V30 22 C 3.4641 4.5 0.0 0
M  V30 23 C 3.4641 5.5 0.0 0
M  V30 24 C 4.3301 5.9999 0.0 0
M  V30 25 C 2.598 6.0 0.0 0
M  V30 26 C 4.3301 7.0 0.0 0
M  V30 27 C 2.598 7.0 0.0 0
M  V30 28 C 3.4641 7.5 0.0 0
M  V30 29 Cl 3.4641 8.5 0.0 0
M  V30 END ATOM
M  V30 BEGIN BOND
M  V30 1 1 1 2
M  V30 2 2 2 3
M  V30 3 1 2 4
M  V30 4 1 3 5
M  V30 5 1 3 6
M  V30 6 2 4 7
M  V30 7 2 5 8
M  V30 8 1 5 9
M  V30 9 2 6 10
M  V30 10 1 7 11
M  V30 11 1 9 12
M  V30 12 1 9 13
M  V30 13 2 12 14
M  V30 14 1 12 15
M  V30 15 1 13 16
M  V30 16 1 14 17
M  V30 17 2 15 18
M  V30 18 1 16 19
M  V30 19 2 17 20
M  V30 20 1 20 21
M  V30 21 1 21 22
M  V30 22 1 22 23
M  V30 23 2 23 24
M  V30 24 1 23 25
M  V30 25 1 24 26
M  V30 26 2 25 27
M  V30 27 2 26 28
M  V30 28 1 28 29
M  V30 29 1 7 10
M  V30 30 1 18 20
M  V30 31 1 27 28
M  V30 END BOND
M  V30 END CTAB
M  END
>  <Rack>
PathogenBox_PlateC

>  <Position>
B11

>  <Compound ID>
MMV688371

>  <Disease Set>
KINETOPLASTIDS

>  <Trivial Name>


>  <Total Molecular Weight>
449.76

>  <Molecular Weight Parent Molecule>
449.76

>  <Molecular Formula>
C22H19N2O2Cl3

>  <Salt Name>


>  <Salt Coefficient>


>  <cLogP>
5.30

>  <SMILES>
NCCN(C(=O)c1ccc(Cl)cc1Cl)c2ccc(OCc3ccc(Cl)cc3)cc2

$$$$
Compound 181
Actelion Java MolfileCreator 2.0

  0  0  0  0  0  0              0 V3000
M  V30 BEGIN CTAB
M  V30 COUNTS 26 28 0 0 0
M  V30 BEGIN ATOM
M  V30 1 F 6.277 -7.7213 0.0 0
M  V30 2 C 7.1586 -6.5078 0.0 0
M  V30 3 C 8.6504 -6.6646 0.0 0
M  V30 4 C 6.5485 -5.1374 0.0 0
M  V30 5 C 9.2605 -8.0349 0.0 0
M  V30 6 C 9.5321 -5.451 0.0 0
M  V30 7 C 7.4302 -3.9239 0.0 0
M  V30 8 C 8.3789 -9.2484 0.0 0
M  V30 9 C 10.7523 -8.1917 0.0 0
M  V30 10 C 8.922 -4.0807 0.0 0
M  V30 11 N 6.8201 -2.5536 0.0 0
M  V30 12 C 8.989 -10.6187 0.0 0
M  V30 13 C 11.3624 -9.562 0.0 0
M  V30 14 C 7.5701 -1.2546 0.0 0
M  V30 15 C 5.3529 -2.2417 0.0 0
M  V30 16 C 10.4807 -10.7755 0.0 0
M  V30 17 O 9.0619 -1.0978 0.0 0
M  V30 18 O 6.5664 -0.1398 0.0 0
M  V30 19 C 5.1961 -0.75 0.0 0 CFG=1
M  V30 20 C 11.0909 -12.1458 0.0 0
M  V30 21 C 3.8971 0.0 0.0 0
M  V30 22 O 12.5826 -12.3026 0.0 0
M  V30 23 N 2.598 -0.75 0.0 0
M  V30 24 C 1.299 0.0 0.0 0
M  V30 25 O 1.299 1.5 0.0 0
M  V30 26 C 0.0 -0.75 0.0 0
M  V30 END ATOM
M  V30 BEGIN BOND
M  V30 1 1 1 2
M  V30 2 2 2 3
M  V30 3 1 2 4
M  V30 4 1 3 5
M  V30 5 1 3 6
M  V30 6 2 4 7
M  V30 7 2 5 8
M  V30 8 1 5 9
M  V30 9 2 6 10
M  V30 10 1 7 11
M  V30 11 1 8 12
M  V30 12 2 9 13
M  V30 13 1 11 14
M  V30 14 1 11 15
M  V30 15 2 12 16
M  V30 16 2 14 17
M  V30 17 1 14 18
M  V30 18 1 19 15
M  V30 19 1 16 20
M  V30 20 1 19 21 CFG=3
M  V30 21 1 20 22
M  V30 22 1 21 23
M  V30 23 1 23 24
M  V30 24 2 24 25
M  V30 25 1 24 26
M  V30 26 1 7 10
M  V30 27 1 13 16
M  V30 28 1 18 19
M  V30 END BOND
M  V30 BEGIN COLLECTION
M  V30 MDLV30/STERAC1 ATOMS=(1 19)
M  V30 END COLLECTION
M  V30 END CTAB
M  END
>  <Rack>
PathogenBox_PlateC

>  <Position>
C02

>  <Compound ID>
MMV688508

>  <Disease Set>
TUBERCULOSIS

>  <Trivial Name>


>  <Total Molecular Weight>
358.36

>  <Molecular Weight Parent Molecule>
358.36

>  <Molecular Formula>
C19H19N2O4F

>  <Salt Name>


>  <Salt Coefficient>


>  <cLogP>
1.91

>  <SMILES>
CC(=O)NCC1CN(C(=O)O1)c2ccc(c(F)c2)c3ccc(CO)cc3

$$$$
Compound 182
Actelion Java MolfileCreator 2.0

  0  0  0  0  0  0              0 V3000
M  V30 BEGIN CTAB
M  V30 COUNTS 34 38 0 0 0
M  V30 BEGIN ATOM
M  V30 1 Cl 6.4951 -3.0 0.0 0
M  V30 2 C 5.1961 -2.25 0.0 0
M  V30 3 C 5.1961 -0.75 0.0 0
M  V30 4 C 3.8971 -3.0 0.0 0
M  V30 5 N 3.8971 0.0 0.0 0
M  V30 6 N 2.598 -2.25 0.0 0
M  V30 7 C 2.598 -0.75 0.0 0
M  V30 8 N 1.299 0.0 0.0 0
M  V30 9 C 0.0 -0.75 0.0 0
M  V30 10 C -1.299 0.0 0.0 0
M  V30 11 C 0.0 -2.25 0.0 0
M  V30 12 C -2.598 -0.75 0.0 0
M  V30 13 C -1.299 1.5 0.0 0
M  V30 14 C -1.299 -3.0 0.0 0
M  V30 15 N -2.598 -2.25 0.0 0
M  V30 16 C -3.8971 0.0 0.0 0
M  V30 17 C -2.598 2.25 0.0 0
M  V30 18 C -3.8971 1.5 0.0 0
M  V30 19 C -5.1961 2.25 0.0 0
M  V30 20 C -5.1961 3.75 0.0 0
M  V30 21 C -6.4951 1.5 0.0 0
M  V30 22 C -6.4951 4.5 0.0 0
M  V30 23 C -7.7942 2.25 0.0 0
M  V30 24 C -7.7942 3.75 0.0 0
M  V30 25 S -9.0932 4.5 0.0 0
M  V30 26 O -8.3432 5.799 0.0 0
M  V30 27 O -9.8432 5.799 0.0 0
M  V30 28 N -10.3923 3.75 0.0 0
M  V30 29 C -11.6913 4.5 0.0 0
M  V30 30 C -10.3923 2.25 0.0 0
M  V30 31 C -12.9903 3.75 0.0 0
M  V30 32 C -11.6913 1.5 0.0 0
M  V30 33 N -12.9903 2.25 0.0 0
M  V30 34 C -14.2894 1.5 0.0 0
M  V30 END ATOM
M  V30 BEGIN BOND
M  V30 1 1 1 2
M  V30 2 2 2 3
M  V30 3 1 2 4
M  V30 4 1 3 5
M  V30 5 2 4 6
M  V30 6 2 5 7
M  V30 7 1 7 8
M  V30 8 1 8 9
M  V30 9 1 9 10
M  V30 10 2 9 11
M  V30 11 1 10 12
M  V30 12 2 10 13
M  V30 13 1 11 14
M  V30 14 1 12 15
M  V30 15 2 12 16
M  V30 16 1 13 17
M  V30 17 1 16 18
M  V30 18 1 18 19
M  V30 19 2 19 20
M  V30 20 1 19 21
M  V30 21 1 20 22
M  V30 22 2 21 23
M  V30 23 2 22 24
M  V30 24 1 24 25
M  V30 25 2 25 26
M  V30 26 2 25 27
M  V30 27 1 25 28
M  V30 28 1 28 29
M  V30 29 1 28 30
M  V30 30 1 29 31
M  V30 31 1 30 32
M  V30 32 1 31 33
M  V30 33 1 33 34
M  V30 34 1 6 7
M  V30 35 2 14 15
M  V30 36 2 17 18
M  V30 37 1 23 24
M  V30 38 1 32 33
M  V30 END BOND
M  V30 END CTAB
M  END
>  <Rack>
PathogenBox_PlateC

>  <Position>
C03

>  <Compound ID>
MMV688283

>  <Disease Set>
KINETOPLASTIDS

>  <Trivial Name>


>  <Total Molecular Weight>
495.00

>  <Molecular Weight Parent Molecule>
495.00

>  <Molecular Formula>
C24H23N6O2ClS

>  <Salt Name>


>  <Salt Coefficient>


>  <cLogP>
3.73

>  <SMILES>
CN1CCN(CC1)S(=O)(=O)c2ccc(cc2)c3ccc4c(Nc5ncc(Cl)cn5)ccnc4c3

$$$$
Compound 183
Actelion Java MolfileCreator 2.0

  0  0  0  0  0  0              0 V3000
M  V30 BEGIN CTAB
M  V30 COUNTS 20 21 0 0 0
M  V30 BEGIN ATOM
M  V30 1 Br 6.9282 1.4999 0.0 0
M  V30 2 C 6.0621 0.9999 0.0 0
M  V30 3 C 5.1961 1.4999 0.0 0
M  V30 4 C 6.0621 0.0 0.0 0
M  V30 5 C 4.3301 1.0 0.0 0
M  V30 6 C 5.1961 -0.5 0.0 0
M  V30 7 C 4.3301 0.0 0.0 0
M  V30 8 C 3.4641 1.4999 0.0 0
M  V30 9 O 3.4641 -0.5 0.0 0
M  V30 10 O 3.4641 2.5 0.0 0
M  V30 11 N 2.598 1.0 0.0 0
M  V30 12 C 2.598 0.0 0.0 0
M  V30 13 C 1.732 -0.5 0.0 0
M  V30 14 O 0.866 0.0 0.0 0
M  V30 15 C 0.0 -0.5 0.0 0
M  V30 16 C -0.866 0.0 0.0 0
M  V30 17 C 0.0 -1.4999 0.0 0
M  V30 18 C -1.732 -0.4999 0.0 0
M  V30 19 C -0.866 -1.9999 0.0 0
M  V30 20 C -1.732 -1.4999 0.0 0
M  V30 END ATOM
M  V30 BEGIN BOND
M  V30 1 1 1 2
M  V30 2 2 2 3
M  V30 3 1 2 4
M  V30 4 1 3 5
M  V30 5 2 4 6
M  V30 6 2 5 7
M  V30 7 1 5 8
M  V30 8 1 7 9
M  V30 9 2 8 10
M  V30 10 1 8 11
M  V30 11 1 9 12
M  V30 12 1 12 13
M  V30 13 1 13 14
M  V30 14 1 14 15
M  V30 15 2 15 16
M  V30 16 1 15 17
M  V30 17 1 16 18
M  V30 18 2 17 19
M  V30 19 2 18 20
M  V30 20 1 6 7
M  V30 21 1 19 20
M  V30 END BOND
M  V30 END CTAB
M  END
>  <Rack>
PathogenBox_PlateC

>  <Position>
C04

>  <Compound ID>
MMV687243

>  <Disease Set>
TUBERCULOSIS

>  <Trivial Name>


>  <Total Molecular Weight>
336.18

>  <Molecular Weight Parent Molecule>
336.18

>  <Molecular Formula>
C15H14NO3Br

>  <Salt Name>


>  <Salt Coefficient>


>  <cLogP>
2.83

>  <SMILES>
NC(=O)c1cc(Br)ccc1OCCOc2ccccc2

$$$$
Compound 184
Actelion Java MolfileCreator 2.0

  0  0  0  0  0  0              0 V3000
M  V30 BEGIN CTAB
M  V30 COUNTS 28 31 0 0 0
M  V30 BEGIN ATOM
M  V30 1 O 6.4951 1.5 0.0 0
M  V30 2 C 6.4951 0.0 0.0 0
M  V30 3 O 5.1961 -0.75 0.0 0
M  V30 4 N 7.7942 -0.75 0.0 0
M  V30 5 C 3.8971 0.0 0.0 0
M  V30 6 C 9.0932 0.0 0.0 0
M  V30 7 C 2.598 -0.75 0.0 0
M  V30 8 C 10.3923 -0.75 0.0 0
M  V30 9 C 9.0932 1.4999 0.0 0
M  V30 10 C 1.299 0.0 0.0 0
M  V30 11 N 10.3923 -2.25 0.0 0
M  V30 12 C 11.6913 0.0 0.0 0
M  V30 13 C 10.3923 2.2499 0.0 0
M  V30 14 C 0.0 -0.75 0.0 0
M  V30 15 C 9.1787 -3.1316 0.0 0
M  V30 16 C 11.6058 -3.1316 0.0 0
M  V30 17 C 11.6913 1.4999 0.0 0
M  V30 18 N 10.7041 3.7172 0.0 0
M  V30 19 C 9.6423 -4.5582 0.0 0
M  V30 20 C 11.1423 -4.5582 0.0 0
M  V30 21 N 12.806 2.5036 0.0 0
M  V30 22 C 12.1959 3.874 0.0 0
M  V30 23 C 12.9459 5.173 0.0 0
M  V30 24 C 14.4459 5.173 0.0 0
M  V30 25 C 12.1959 6.472 0.0 0
M  V30 26 C 15.1959 6.472 0.0 0
M  V30 27 C 12.9459 7.7711 0.0 0
M  V30 28 C 14.4459 7.7711 0.0 0
M  V30 END ATOM
M  V30 BEGIN BOND
M  V30 1 2 1 2
M  V30 2 1 2 3
M  V30 3 1 2 4
M  V30 4 1 3 5
M  V30 5 1 4 6
M  V30 6 1 5 7
M  V30 7 2 6 8
M  V30 8 1 6 9
M  V30 9 1 7 10
M  V30 10 1 8 11
M  V30 11 1 8 12
M  V30 12 2 9 13
M  V30 13 1 10 14
M  V30 14 1 11 15
M  V30 15 1 11 16
M  V30 16 2 12 17
M  V30 17 1 13 18
M  V30 18 1 15 19
M  V30 19 1 16 20
M  V30 20 1 17 21
M  V30 21 2 18 22
M  V30 22 1 22 23
M  V30 23 1 23 24
M  V30 24 1 23 25
M  V30 25 1 24 26
M  V30 26 1 25 27
M  V30 27 1 26 28
M  V30 28 1 13 17
M  V30 29 1 19 20
M  V30 30 1 21 22
M  V30 31 1 27 28
M  V30 END BOND
M  V30 END CTAB
M  END
>  <Rack>
PathogenBox_PlateC

>  <Position>
C05

>  <Compound ID>
MMV687730

>  <Disease Set>
TUBERCULOSIS

>  <Trivial Name>


>  <Total Molecular Weight>
384.52

>  <Molecular Weight Parent Molecule>
384.52

>  <Molecular Formula>
C22H32N4O2

>  <Salt Name>


>  <Salt Coefficient>


>  <cLogP>
5.00

>  <SMILES>
CCCCOC(=O)Nc1cc2nc([nH]c2cc1N3CCCC3)C4CCCCC4

$$$$
Compound 185
Actelion Java MolfileCreator 2.0

  0  0  0  0  0  0              0 V3000
M  V30 BEGIN CTAB
M  V30 COUNTS 17 18 0 0 0
M  V30 BEGIN ATOM
M  V30 1 S 0.866 0.0 0.0 0
M  V30 2 O 1.366 -0.866 0.0 0
M  V30 3 O 0.366 0.866 0.0 0
M  V30 4 C 0.0 -0.5 0.0 0
M  V30 5 C 1.732 0.4999 0.0 0
M  V30 6 S -0.9135 -0.0932 0.0 0
M  V30 7 C -0.1045 -1.4945 0.0 0
M  V30 8 N -1.5826 -0.8364 0.0 0
M  V30 9 C 0.5646 -2.2376 0.0 0
M  V30 10 C -1.0826 -1.7024 0.0 0
M  V30 11 O 1.5427 -2.0297 0.0 0
M  V30 12 N 0.2555 -3.1887 0.0 0
M  V30 13 N -1.3916 -2.6534 0.0 0
M  V30 14 C -0.7225 -3.3966 0.0 0
M  V30 15 C 0.9247 -3.9318 0.0 0
M  V30 16 C -2.3698 -2.8614 0.0 0
M  V30 17 O -1.0315 -4.3476 0.0 0
M  V30 END ATOM
M  V30 BEGIN BOND
M  V30 1 2 1 2
M  V30 2 2 1 3
M  V30 3 1 1 4
M  V30 4 1 1 5
M  V30 5 1 4 6
M  V30 6 2 4 7
M  V30 7 1 6 8
M  V30 8 1 7 9
M  V30 9 1 7 10
M  V30 10 2 9 11
M  V30 11 1 9 12
M  V30 12 1 10 13
M  V30 13 1 12 14
M  V30 14 1 12 15
M  V30 15 1 13 16
M  V30 16 2 14 17
M  V30 17 2 8 10
M  V30 18 1 13 14
M  V30 END BOND
M  V30 END CTAB
M  END
>  <Rack>
PathogenBox_PlateC

>  <Position>
C06

>  <Compound ID>
MMV687251

>  <Disease Set>
TUBERCULOSIS

>  <Trivial Name>


>  <Total Molecular Weight>
275.30

>  <Molecular Weight Parent Molecule>
275.30

>  <Molecular Formula>
C8H9N3O4S2

>  <Salt Name>


>  <Salt Coefficient>


>  <cLogP>
-0.04

>  <SMILES>
CN1C(=O)N(C)c2nsc(c2C1=O)S(=O)(=O)C

$$$$
Compound 186
Actelion Java MolfileCreator 2.0

  0  0  0  0  0  0              0 V3000
M  V30 BEGIN CTAB
M  V30 COUNTS 23 25 0 0 0
M  V30 BEGIN ATOM
M  V30 1 O 9.0932 -4.5 0.0 0
M  V30 2 C 9.0932 -3.0 0.0 0
M  V30 3 N 10.3923 -2.2499 0.0 0
M  V30 4 C 7.7942 -2.25 0.0 0
M  V30 5 C 10.3923 -0.75 0.0 0
M  V30 6 N 7.7942 -0.75 0.0 0
M  V30 7 C 6.4951 -2.9999 0.0 0
M  V30 8 N 9.0932 0.0 0.0 0
M  V30 9 C 11.6913 0.0 0.0 0
M  V30 10 C 6.4951 0.0 0.0 0
M  V30 11 C 5.1961 -2.25 0.0 0
M  V30 12 C 9.0932 1.5 0.0 0
M  V30 13 C 11.6913 1.5 0.0 0
M  V30 14 C 12.9903 -0.75 0.0 0
M  V30 15 C 5.1961 -0.75 0.0 0
M  V30 16 C 10.3923 2.25 0.0 0
M  V30 17 C 12.9903 2.2499 0.0 0
M  V30 18 C 14.2894 0.0 0.0 0
M  V30 19 C 3.8971 0.0 0.0 0
M  V30 20 C 14.2894 1.5 0.0 0
M  V30 21 C 2.598 -0.75 0.0 0
M  V30 22 C 1.299 0.0 0.0 0
M  V30 23 C 0.0 -0.75 0.0 0
M  V30 END ATOM
M  V30 BEGIN BOND
M  V30 1 2 1 2
M  V30 2 1 2 3
M  V30 3 1 2 4
M  V30 4 1 3 5
M  V30 5 2 4 6
M  V30 6 1 4 7
M  V30 7 2 5 8
M  V30 8 1 5 9
M  V30 9 1 6 10
M  V30 10 2 7 11
M  V30 11 1 8 12
M  V30 12 1 9 13
M  V30 13 2 9 14
M  V30 14 2 10 15
M  V30 15 2 12 16
M  V30 16 2 13 17
M  V30 17 1 14 18
M  V30 18 1 15 19
M  V30 19 1 17 20
M  V30 20 1 19 21
M  V30 21 1 21 22
M  V30 22 1 22 23
M  V30 23 1 11 15
M  V30 24 1 13 16
M  V30 25 2 18 20
M  V30 END BOND
M  V30 END CTAB
M  END
>  <Rack>
PathogenBox_PlateC

>  <Position>
C07

>  <Compound ID>
MMV687254

>  <Disease Set>
TUBERCULOSIS

>  <Trivial Name>


>  <Total Molecular Weight>
305.37

>  <Molecular Weight Parent Molecule>
305.37

>  <Molecular Formula>
C19H19N3O

>  <Salt Name>


>  <Salt Coefficient>


>  <cLogP>
4.07

>  <SMILES>
CCCCc1ccc(nc1)C(=O)Nc2nccc3ccccc23

$$$$
Compound 187
Actelion Java MolfileCreator 2.0

  0  0  0  0  0  0              0 V3000
M  V30 BEGIN CTAB
M  V30 COUNTS 34 38 0 0 0
M  V30 BEGIN ATOM
M  V30 1 F 11.6229 -1.9182 0.0 0
M  V30 2 C 10.6284 -2.0228 0.0 0
M  V30 3 C 10.0406 -1.2138 0.0 0
M  V30 4 C 10.2216 -2.9363 0.0 0
M  V30 5 C 9.0461 -1.3183 0.0 0
M  V30 6 C 9.2271 -3.0408 0.0 0
M  V30 7 C 8.6393 -2.2318 0.0 0
M  V30 8 C 7.6448 -2.3364 0.0 0
M  V30 9 N 6.9757 -1.5932 0.0 0
M  V30 10 C 7.1448 -3.2024 0.0 0
M  V30 11 C 6.0621 -2.0 0.0 0
M  V30 12 C 7.5515 -4.1159 0.0 0
M  V30 13 C 6.1667 -2.9945 0.0 0
M  V30 14 C 5.1961 -1.4999 0.0 0
M  V30 15 C 6.9638 -4.9249 0.0 0
M  V30 16 C 8.5461 -4.2205 0.0 0
M  V30 17 C 5.1961 -0.5 0.0 0
M  V30 18 C 4.3301 -1.9999 0.0 0
M  V30 19 C 7.3705 -5.8385 0.0 0
M  V30 20 C 8.9528 -5.134 0.0 0
M  V30 21 C 4.3301 0.0 0.0 0
M  V30 22 C 3.4641 -1.5 0.0 0
M  V30 23 N 8.365 -5.943 0.0 0
M  V30 24 N 3.4641 -0.5 0.0 0
M  V30 25 C 2.598 0.0 0.0 0
M  V30 26 O 2.598 1.0 0.0 0
M  V30 27 O 1.732 -0.5 0.0 0
M  V30 28 C 0.866 0.0 0.0 0
M  V30 29 C 0.0 -0.5 0.0 0
M  V30 30 C -0.866 0.0 0.0 0
M  V30 31 C 0.0 -1.4999 0.0 0
M  V30 32 C -1.732 -0.4999 0.0 0
M  V30 33 C -0.866 -1.9999 0.0 0
M  V30 34 C -1.732 -1.4999 0.0 0
M  V30 END ATOM
M  V30 BEGIN BOND
M  V30 1 1 1 2
M  V30 2 2 2 3
M  V30 3 1 2 4
M  V30 4 1 3 5
M  V30 5 2 4 6
M  V30 6 2 5 7
M  V30 7 1 7 8
M  V30 8 1 8 9
M  V30 9 2 8 10
M  V30 10 1 9 11
M  V30 11 1 10 12
M  V30 12 1 10 13
M  V30 13 1 11 14
M  V30 14 2 12 15
M  V30 15 1 12 16
M  V30 16 1 14 17
M  V30 17 1 14 18
M  V30 18 1 15 19
M  V30 19 2 16 20
M  V30 20 1 17 21
M  V30 21 1 18 22
M  V30 22 2 19 23
M  V30 23 1 21 24
M  V30 24 1 24 25
M  V30 25 2 25 26
M  V30 26 1 25 27
M  V30 27 1 27 28
M  V30 28 1 28 29
M  V30 29 2 29 30
M  V30 30 1 29 31
M  V30 31 1 30 32
M  V30 32 2 31 33
M  V30 33 2 32 34
M  V30 34 1 6 7
M  V30 35 2 11 13
M  V30 36 1 20 23
M  V30 37 1 22 24
M  V30 38 1 33 34
M  V30 END BOND
M  V30 END CTAB
M  END
>  <Rack>
PathogenBox_PlateC

>  <Position>
C08

>  <Compound ID>
MMV688509

>  <Disease Set>
TOXOPLASMOSIS

>  <Trivial Name>


>  <Total Molecular Weight>
455.52

>  <Molecular Weight Parent Molecule>
455.52

>  <Molecular Formula>
C28H26N3O2F

>  <Salt Name>


>  <Salt Coefficient>


>  <cLogP>
5.71

>  <SMILES>
Fc1ccc(cc1)-c1[nH]c(cc1-c1ccncc1)C1CCN(CC1)C(=O)OCc1ccccc1

$$$$
Compound 188
Actelion Java MolfileCreator 2.0

  0  0  0  0  0  0              0 V3000
M  V30 BEGIN CTAB
M  V30 COUNTS 27 31 0 0 0
M  V30 BEGIN ATOM
M  V30 1 O 1.7795 -0.4067 0.0 0
M  V30 2 N 2.4487 0.3364 0.0 0
M  V30 3 C 0.866 0.0 0.0 0
M  V30 4 C 1.9487 1.2024 0.0 0
M  V30 5 C 0.0 -0.5 0.0 0
M  V30 6 C 0.9705 0.9945 0.0 0
M  V30 7 C 2.3554 2.1159 0.0 0
M  V30 8 C -0.866 0.0 0.0 0
M  V30 9 C 0.0 -1.4999 0.0 0
M  V30 10 C 3.3499 2.2205 0.0 0
M  V30 11 C 1.7676 2.9249 0.0 0
M  V30 12 C -1.732 -0.4999 0.0 0
M  V30 13 C -0.866 -1.9999 0.0 0
M  V30 14 C 3.7566 3.134 0.0 0
M  V30 15 C 2.1743 3.8385 0.0 0
M  V30 16 C -2.598 0.0 0.0 0
M  V30 17 C -1.732 -1.4999 0.0 0
M  V30 18 C 3.1689 3.943 0.0 0
M  V30 19 N -2.7026 0.9945 0.0 0
M  V30 20 N -3.5116 -0.4067 0.0 0
M  V30 21 C 3.5756 4.8566 0.0 0
M  V30 22 C -3.6807 1.2024 0.0 0
M  V30 23 C -4.1807 0.3364 0.0 0
M  V30 24 N 4.5537 5.0645 0.0 0
M  V30 25 N 3.0756 5.7226 0.0 0
M  V30 26 C 4.6583 6.059 0.0 0
M  V30 27 C 3.7447 6.4657 0.0 0
M  V30 END ATOM
M  V30 BEGIN BOND
M  V30 1 1 1 2
M  V30 2 1 1 3
M  V30 3 2 2 4
M  V30 4 1 3 5
M  V30 5 2 3 6
M  V30 6 1 4 7
M  V30 7 2 5 8
M  V30 8 1 5 9
M  V30 9 2 7 10
M  V30 10 1 7 11
M  V30 11 1 8 12
M  V30 12 2 9 13
M  V30 13 1 10 14
M  V30 14 2 11 15
M  V30 15 1 12 16
M  V30 16 2 12 17
M  V30 17 2 14 18
M  V30 18 2 16 19
M  V30 19 1 16 20
M  V30 20 1 18 21
M  V30 21 1 19 22
M  V30 22 1 20 23
M  V30 23 2 21 24
M  V30 24 1 21 25
M  V30 25 1 24 26
M  V30 26 1 25 27
M  V30 27 1 4 6
M  V30 28 1 13 17
M  V30 29 1 15 18
M  V30 30 1 22 23
M  V30 31 1 26 27
M  V30 END BOND
M  V30 END CTAB
M  END
>  <Rack>
PathogenBox_PlateC

>  <Position>
C09

>  <Compound ID>
MMV688361

>  <Disease Set>
KINETOPLASTIDS

>  <Trivial Name>


>  <Total Molecular Weight>
357.41

>  <Molecular Weight Parent Molecule>
357.41

>  <Molecular Formula>
C21H19N5O

>  <Salt Name>


>  <Salt Coefficient>


>  <cLogP>
2.31

>  <SMILES>
C1CN=C(N1)c2ccc(cc2)c3cc(on3)c4cccc(c4)C5=NCCN5

$$$$
Compound 189
Actelion Java MolfileCreator 2.0

  0  0  0  0  0  0              0 V3000
M  V30 BEGIN CTAB
M  V30 COUNTS 35 38 0 0 0
M  V30 BEGIN ATOM
M  V30 1 S 2.598 -0.75 0.0 0
M  V30 2 O 1.848 -2.049 0.0 0
M  V30 3 O 3.348 -2.049 0.0 0
M  V30 4 N 1.299 0.0 0.0 0
M  V30 5 C 3.8971 0.0 0.0 0
M  V30 6 C 0.0 -0.75 0.0 0
M  V30 7 C 5.1961 -0.75 0.0 0
M  V30 8 C 3.8971 1.5 0.0 0
M  V30 9 C -1.299 0.0 0.0 0
M  V30 10 C 0.0 -2.25 0.0 0
M  V30 11 C 6.4951 0.0 0.0 0
M  V30 12 C 5.1961 2.25 0.0 0
M  V30 13 C -2.598 -0.75 0.0 0
M  V30 14 C -1.299 -3.0 0.0 0
M  V30 15 C 6.4951 1.5 0.0 0
M  V30 16 C -2.598 -2.25 0.0 0
M  V30 17 O 7.7942 2.25 0.0 0
M  V30 18 C -3.8971 -3.0 0.0 0
M  V30 19 C 7.7942 3.75 0.0 0
M  V30 20 N -3.8971 -4.5 0.0 0
M  V30 21 C -5.1961 -5.25 0.0 0
M  V30 22 C -2.598 -5.25 0.0 0
M  V30 23 C -5.1961 -6.75 0.0 0
M  V30 24 C -2.598 -6.75 0.0 0
M  V30 25 N -3.8971 -7.5 0.0 0
M  V30 26 C -3.8971 -9.0 0.0 0
M  V30 27 O -5.1961 -9.75 0.0 0
M  V30 28 C -2.598 -9.75 0.0 0
M  V30 29 C -2.598 -11.25 0.0 0
M  V30 30 C -1.299 -9.0 0.0 0
M  V30 31 C -1.299 -12.0 0.0 0
M  V30 32 C 0.0 -9.75 0.0 0
M  V30 33 C -1.299 -13.5 0.0 0
M  V30 34 C 0.0 -11.25 0.0 0
M  V30 35 N -1.299 -15.0 0.0 0
M  V30 END ATOM
M  V30 BEGIN BOND
M  V30 1 2 1 2
M  V30 2 2 1 3
M  V30 3 1 1 4
M  V30 4 1 1 5
M  V30 5 1 4 6
M  V30 6 2 5 7
M  V30 7 1 5 8
M  V30 8 2 6 9
M  V30 9 1 6 10
M  V30 10 1 7 11
M  V30 11 2 8 12
M  V30 12 1 9 13
M  V30 13 2 10 14
M  V30 14 2 11 15
M  V30 15 2 13 16
M  V30 16 1 15 17
M  V30 17 1 16 18
M  V30 18 1 17 19
M  V30 19 1 18 20
M  V30 20 1 20 21
M  V30 21 1 20 22
M  V30 22 1 21 23
M  V30 23 1 22 24
M  V30 24 1 23 25
M  V30 25 1 25 26
M  V30 26 2 26 27
M  V30 27 1 26 28
M  V30 28 2 28 29
M  V30 29 1 28 30
M  V30 30 1 29 31
M  V30 31 2 30 32
M  V30 32 1 31 33
M  V30 33 2 31 34
M  V30 34 3 33 35
M  V30 35 1 12 15
M  V30 36 1 14 16
M  V30 37 1 24 25
M  V30 38 1 32 34
M  V30 END BOND
M  V30 END CTAB
M  END
>  <Rack>
PathogenBox_PlateC

>  <Position>
C10

>  <Compound ID>
MMV689029

>  <Disease Set>
KINETOPLASTIDS

>  <Trivial Name>


>  <Total Molecular Weight>
490.57

>  <Molecular Weight Parent Molecule>
490.57

>  <Molecular Formula>
C26H26N4O4S

>  <Salt Name>


>  <Salt Coefficient>


>  <cLogP>
2.93

>  <SMILES>
O=C(N1CCN(CC2=CC=C(NS(=O)(C3=CC=C(OC)C=C3)=O)C=C2)CC1)C4=CC(C#N)=CC=C4

$$$$
Compound 190
Actelion Java MolfileCreator 2.0

  0  0  0  0  0  0              0 V3000
M  V30 BEGIN CTAB
M  V30 COUNTS 31 33 0 0 0
M  V30 BEGIN ATOM
M  V30 1 F 11.9292 -6.7092 0.0 0
M  V30 2 C 11.0156 -7.1159 0.0 0
M  V30 3 F 11.4224 -8.0295 0.0 0
M  V30 4 F 10.1021 -7.5227 0.0 0
M  V30 5 C 10.6089 -6.2024 0.0 0
M  V30 6 O 11.1089 -5.3364 0.0 0
M  V30 7 N 9.6308 -5.9945 0.0 0
M  V30 8 N 10.4398 -4.5932 0.0 0
M  V30 9 C 9.5262 -5.0 0.0 0
M  V30 10 C 8.6602 -4.5 0.0 0
M  V30 11 C 8.6602 -3.5 0.0 0
M  V30 12 C 7.7942 -5.0 0.0 0
M  V30 13 C 7.7942 -3.0 0.0 0
M  V30 14 C 6.9282 -4.4999 0.0 0
M  V30 15 C 7.7942 -2.0 0.0 0
M  V30 16 C 6.9282 -3.5 0.0 0
M  V30 17 O 8.6602 -1.5 0.0 0
M  V30 18 N 6.9282 -1.5 0.0 0
M  V30 19 C 6.9282 -0.5 0.0 0
M  V30 20 C 6.0621 -2.0 0.0 0
M  V30 21 C 6.0621 0.0 0.0 0
M  V30 22 C 5.1961 -1.5 0.0 0
M  V30 23 N 5.1961 -0.5 0.0 0
M  V30 24 C 4.3301 0.0 0.0 0
M  V30 25 C 3.4641 -0.5 0.0 0
M  V30 26 C 2.598 0.0 0.0 0
M  V30 27 N 1.732 -0.5 0.0 0
M  V30 28 C 1.732 -1.5 0.0 0
M  V30 29 C 0.866 0.0 0.0 0
M  V30 30 C 2.598 -1.9999 0.0 0
M  V30 31 C 0.0 -0.5 0.0 0
M  V30 END ATOM
M  V30 BEGIN BOND
M  V30 1 1 1 2
M  V30 2 1 2 3
M  V30 3 1 2 4
M  V30 4 1 2 5
M  V30 5 1 5 6
M  V30 6 2 5 7
M  V30 7 1 6 8
M  V30 8 1 7 9
M  V30 9 1 9 10
M  V30 10 2 10 11
M  V30 11 1 10 12
M  V30 12 1 11 13
M  V30 13 2 12 14
M  V30 14 1 13 15
M  V30 15 2 13 16
M  V30 16 2 15 17
M  V30 17 1 15 18
M  V30 18 1 18 19
M  V30 19 1 18 20
M  V30 20 1 19 21
M  V30 21 1 20 22
M  V30 22 1 21 23
M  V30 23 1 23 24
M  V30 24 1 24 25
M  V30 25 1 25 26
M  V30 26 1 26 27
M  V30 27 1 27 28
M  V30 28 1 27 29
M  V30 29 1 28 30
M  V30 30 1 29 31
M  V30 31 2 8 9
M  V30 32 1 14 16
M  V30 33 1 22 23
M  V30 END BOND
M  V30 END CTAB
M  END
>  <Rack>
PathogenBox_PlateC

>  <Position>
C11

>  <Compound ID>
MMV022236

>  <Disease Set>
MALARIA

>  <Trivial Name>


>  <Total Molecular Weight>
439.48

>  <Molecular Weight Parent Molecule>
439.48

>  <Molecular Formula>
C21H28N5O2F3

>  <Salt Name>


>  <Salt Coefficient>


>  <cLogP>
3.08

>  <SMILES>
CCN(CC)CCCN1CCN(CC1)C(=O)c2cccc(c2)c3noc(n3)C(F)(F)F

$$$$
Compound 191
Actelion Java MolfileCreator 2.0

  0  0  0  0  0  0              0 V3000
M  V30 BEGIN CTAB
M  V30 COUNTS 27 29 0 0 0
M  V30 BEGIN ATOM
M  V30 1 Cl 7.7942 3.9999 0.0 0
M  V30 2 C 7.7942 2.9999 0.0 0
M  V30 3 C 6.9282 2.4999 0.0 0
M  V30 4 C 8.6602 2.4999 0.0 0
M  V30 5 C 6.9282 1.4999 0.0 0
M  V30 6 C 8.6602 1.4999 0.0 0
M  V30 7 C 7.7942 0.9999 0.0 0
M  V30 8 C 6.0621 0.9999 0.0 0 CFG=1
M  V30 9 N 7.7942 0.0 0.0 0
M  V30 10 N 6.0621 0.0 0.0 0
M  V30 11 C 5.1961 1.5 0.0 0
M  V30 12 C 6.9282 -0.5 0.0 0
M  V30 13 C 5.1961 -0.5 0.0 0
M  V30 14 C 5.1961 2.5 0.0 0
M  V30 15 C 4.3301 1.0 0.0 0
M  V30 16 C 6.9282 -1.5 0.0 0
M  V30 17 C 4.3301 0.0 0.0 0
M  V30 18 C 4.3301 3.0 0.0 0
M  V30 19 C 3.4641 1.5 0.0 0
M  V30 20 N 3.4641 -0.5 0.0 0
M  V30 21 C 3.4641 2.5 0.0 0
M  V30 22 C 2.598 0.0 0.0 0
M  V30 23 O 2.598 1.0 0.0 0
M  V30 24 C 1.732 -0.5 0.0 0
M  V30 25 N 0.866 0.0 0.0 0
M  V30 26 C 0.866 1.0 0.0 0
M  V30 27 C 0.0 -0.5 0.0 0
M  V30 END ATOM
M  V30 BEGIN BOND
M  V30 1 1 1 2
M  V30 2 2 2 3
M  V30 3 1 2 4
M  V30 4 1 3 5
M  V30 5 2 4 6
M  V30 6 2 5 7
M  V30 7 1 8 5
M  V30 8 1 7 9
M  V30 9 1 8 10
M  V30 10 1 8 11 CFG=1
M  V30 11 2 9 12
M  V30 12 1 10 13
M  V30 13 2 11 14
M  V30 14 1 11 15
M  V30 15 1 12 16
M  V30 16 1 13 17
M  V30 17 1 14 18
M  V30 18 2 15 19
M  V30 19 1 17 20
M  V30 20 2 18 21
M  V30 21 1 20 22
M  V30 22 2 22 23
M  V30 23 1 22 24
M  V30 24 1 24 25
M  V30 25 1 25 26
M  V30 26 1 25 27
M  V30 27 1 6 7
M  V30 28 1 10 12
M  V30 29 1 19 21
M  V30 END BOND
M  V30 BEGIN COLLECTION
M  V30 MDLV30/STERAC1 ATOMS=(1 8)
M  V30 END COLLECTION
M  V30 END CTAB
M  END
>  <Rack>
PathogenBox_PlateC

>  <Position>
D02

>  <Compound ID>
MMV688410

>  <Disease Set>
KINETOPLASTIDS

>  <Trivial Name>


>  <Total Molecular Weight>
384.90

>  <Molecular Weight Parent Molecule>
384.90

>  <Molecular Formula>
C21H25N4OCl

>  <Salt Name>


>  <Salt Coefficient>


>  <cLogP>
2.39

>  <SMILES>
CN(C)CC(=O)NCCN1C(c2ccccc2)c3cc(Cl)ccc3N=C1C

$$$$
Compound 192
Actelion Java MolfileCreator 2.0

  0  0  0  0  0  0              0 V3000
M  V30 BEGIN CTAB
M  V30 COUNTS 21 23 0 0 0
M  V30 BEGIN ATOM
M  V30 1 Cl 1.732 1.4999 0.0 0
M  V30 2 C 2.598 1.0 0.0 0
M  V30 3 C 2.598 0.0 0.0 0
M  V30 4 C 3.4641 1.4999 0.0 0
M  V30 5 C 3.4641 -0.5 0.0 0
M  V30 6 C 1.732 -0.5 0.0 0
M  V30 7 C 4.3301 1.0 0.0 0
M  V30 8 C 4.3301 0.0 0.0 0
M  V30 9 O 0.866 0.0 0.0 0
M  V30 10 Cl 5.1961 -0.5 0.0 0
M  V30 11 C 0.0 -0.5 0.0 0 CFG=2
M  V30 12 C -0.866 0.0 0.0 0 CFG=1
M  V30 13 C 0.0 -1.4999 0.0 0
M  V30 14 N -0.866 1.0 0.0 0
M  V30 15 C -1.732 -0.4999 0.0 0
M  V30 16 C -0.866 -1.9999 0.0 0
M  V30 17 C -0.057 1.5877 0.0 0
M  V30 18 C -1.675 1.5877 0.0 0
M  V30 19 C -1.732 -1.4999 0.0 0
M  V30 20 N -0.366 2.5388 0.0 0
M  V30 21 C -1.366 2.5388 0.0 0
M  V30 END ATOM
M  V30 BEGIN BOND
M  V30 1 1 1 2
M  V30 2 2 2 3
M  V30 3 1 2 4
M  V30 4 1 3 5
M  V30 5 1 3 6
M  V30 6 2 4 7
M  V30 7 2 5 8
M  V30 8 1 6 9
M  V30 9 1 8 10
M  V30 10 1 11 9 CFG=1
M  V30 11 1 12 11
M  V30 12 1 11 13
M  V30 13 1 12 14 CFG=3
M  V30 14 1 12 15
M  V30 15 1 13 16
M  V30 16 1 14 17
M  V30 17 1 14 18
M  V30 18 1 15 19
M  V30 19 2 17 20
M  V30 20 2 18 21
M  V30 21 1 7 8
M  V30 22 1 16 19
M  V30 23 1 20 21
M  V30 END BOND
M  V30 BEGIN COLLECTION
M  V30 MDLV30/STEABS ATOMS=(2 11 12)
M  V30 END COLLECTION
M  V30 END CTAB
M  END
>  <Rack>
PathogenBox_PlateC

>  <Position>
D03

>  <Compound ID>
MMV676048

>  <Disease Set>
KINETOPLASTIDS

>  <Trivial Name>


>  <Total Molecular Weight>
325.23

>  <Molecular Weight Parent Molecule>
325.23

>  <Molecular Formula>
C16H18N2OCl2

>  <Salt Name>


>  <Salt Coefficient>


>  <cLogP>
4.00

>  <SMILES>
Clc1ccc(Cl)c(CO[C@H]2CCCC[C@@H]2n3ccnc3)c1

$$$$
Compound 193
Actelion Java MolfileCreator 2.0

  0  0  0  0  0  0              0 V3000
M  V30 BEGIN CTAB
M  V30 COUNTS 28 32 0 0 0
M  V30 BEGIN ATOM
M  V30 1 O 4.3301 0.0 0.0 0
M  V30 2 C 3.4641 -0.5 0.0 0
M  V30 3 C 5.1961 -0.5 0.0 0
M  V30 4 N 3.4641 -1.5 0.0 0
M  V30 5 C 2.598 0.0 0.0 0
M  V30 6 C 2.598 -2.0 0.0 0
M  V30 7 C 1.732 -0.5 0.0 0
M  V30 8 C 2.598 -3.0 0.0 0
M  V30 9 C 1.732 -1.5 0.0 0
M  V30 10 N 1.789 -3.5877 0.0 0
M  V30 11 N 3.407 -3.5877 0.0 0
M  V30 12 C 2.098 -4.5388 0.0 0
M  V30 13 C 3.098 -4.5388 0.0 0
M  V30 14 C 4.3581 -3.2787 0.0 0
M  V30 15 C 1.598 -5.4048 0.0 0
M  V30 16 C 3.598 -5.4048 0.0 0
M  V30 17 C 5.1012 -3.9478 0.0 0 CFG=2
M  V30 18 N 0.598 -5.4048 0.0 0
M  V30 19 C 2.098 -6.2708 0.0 0
M  V30 20 C 3.098 -6.2708 0.0 0
M  V30 21 N 6.0794 -3.7399 0.0 0
M  V30 22 C 4.9967 -4.9424 0.0 0
M  V30 23 C 0.0102 -4.5958 0.0 0
M  V30 24 C 0.0102 -6.2138 0.0 0
M  V30 25 C 6.5794 -4.606 0.0 0
M  V30 26 C 5.9103 -5.3491 0.0 0
M  V30 27 C -0.9407 -4.9048 0.0 0
M  V30 28 C -0.9407 -5.9048 0.0 0
M  V30 END ATOM
M  V30 BEGIN BOND
M  V30 1 1 1 2
M  V30 2 1 1 3
M  V30 3 2 2 4
M  V30 4 1 2 5
M  V30 5 1 4 6
M  V30 6 2 5 7
M  V30 7 1 6 8
M  V30 8 2 6 9
M  V30 9 2 8 10
M  V30 10 1 8 11
M  V30 11 1 10 12
M  V30 12 1 11 13
M  V30 13 1 11 14
M  V30 14 1 12 15
M  V30 15 1 13 16
M  V30 16 1 17 14 CFG=3
M  V30 17 1 15 18
M  V30 18 2 15 19
M  V30 19 2 16 20
M  V30 20 1 17 21
M  V30 21 1 17 22
M  V30 22 1 18 23
M  V30 23 1 18 24
M  V30 24 1 21 25
M  V30 25 1 22 26
M  V30 26 1 23 27
M  V30 27 1 24 28
M  V30 28 1 7 9
M  V30 29 2 12 13
M  V30 30 1 19 20
M  V30 31 1 25 26
M  V30 32 1 27 28
M  V30 END BOND
M  V30 BEGIN COLLECTION
M  V30 MDLV30/STERAC1 ATOMS=(1 17)
M  V30 END COLLECTION
M  V30 END CTAB
M  END
>  <Rack>
PathogenBox_PlateC

>  <Position>
D04

>  <Compound ID>
MMV687703

>  <Disease Set>
TUBERCULOSIS

>  <Trivial Name>


>  <Total Molecular Weight>
377.48

>  <Molecular Weight Parent Molecule>
377.48

>  <Molecular Formula>
C22H27N5O

>  <Salt Name>


>  <Salt Coefficient>


>  <cLogP>
2.90

>  <SMILES>
COc1cccc(n1)c2nc3c(cccc3n2CC4CCCN4)N5CCCC5

$$$$
Compound 194
Actelion Java MolfileCreator 2.0

  0  0  0  0  0  0              0 V3000
M  V30 BEGIN CTAB
M  V30 COUNTS 24 27 0 0 0
M  V30 BEGIN ATOM
M  V30 1 F 6.4951 -3.0 0.0 0
M  V30 2 C 5.1961 -2.2499 0.0 0
M  V30 3 C 5.1961 -0.75 0.0 0
M  V30 4 C 3.8971 -2.9999 0.0 0
M  V30 5 C 3.8971 0.0 0.0 0
M  V30 6 C 2.598 -2.25 0.0 0
M  V30 7 C 2.598 -0.75 0.0 0
M  V30 8 O 1.299 0.0 0.0 0
M  V30 9 C 0.0 -0.75 0.0 0
M  V30 10 C -1.299 0.0 0.0 0
M  V30 11 C 0.0 -2.2499 0.0 0
M  V30 12 N -2.598 -0.7499 0.0 0
M  V30 13 C -1.299 -2.9999 0.0 0
M  V30 14 C -2.598 -2.2499 0.0 0
M  V30 15 C -1.299 -4.4999 0.0 0
M  V30 16 C -2.598 -5.2499 0.0 0
M  V30 17 C 0.0 -5.2499 0.0 0
M  V30 18 C -2.598 -6.7499 0.0 0
M  V30 19 C 0.0 -6.7499 0.0 0
M  V30 20 N -3.7127 -7.7536 0.0 0
M  V30 21 C -1.299 -7.4999 0.0 0
M  V30 22 C -3.1026 -9.124 0.0 0
M  V30 23 N -1.6109 -8.9672 0.0 0
M  V30 24 N -3.8526 -10.423 0.0 0
M  V30 END ATOM
M  V30 BEGIN BOND
M  V30 1 1 1 2
M  V30 2 2 2 3
M  V30 3 1 2 4
M  V30 4 1 3 5
M  V30 5 2 4 6
M  V30 6 2 5 7
M  V30 7 1 7 8
M  V30 8 1 8 9
M  V30 9 2 9 10
M  V30 10 1 9 11
M  V30 11 1 10 12
M  V30 12 2 11 13
M  V30 13 2 12 14
M  V30 14 1 13 15
M  V30 15 2 15 16
M  V30 16 1 15 17
M  V30 17 1 16 18
M  V30 18 2 17 19
M  V30 19 1 18 20
M  V30 20 2 18 21
M  V30 21 1 20 22
M  V30 22 1 21 23
M  V30 23 1 22 24
M  V30 24 1 6 7
M  V30 25 1 13 14
M  V30 26 1 19 21
M  V30 27 2 22 23
M  V30 END BOND
M  V30 END CTAB
M  END
>  <Rack>
PathogenBox_PlateC

>  <Position>
D05

>  <Compound ID>
MMV687248

>  <Disease Set>
TUBERCULOSIS

>  <Trivial Name>


>  <Total Molecular Weight>
320.32

>  <Molecular Weight Parent Molecule>
320.32

>  <Molecular Formula>
C18H13N4OF

>  <Salt Name>


>  <Salt Coefficient>


>  <cLogP>
3.11

>  <SMILES>
Nc1nc2ccc(cc2[nH]1)c3cncc(Oc4ccc(F)cc4)c3

$$$$
Compound 195
Actelion Java MolfileCreator 2.0

  0  0  0  0  0  0              0 V3000
M  V30 BEGIN CTAB
M  V30 COUNTS 30 33 0 0 0
M  V30 BEGIN ATOM
M  V30 1 S 2.598 -0.75 0.0 0
M  V30 2 O 1.848 -2.049 0.0 0
M  V30 3 O 3.348 -2.049 0.0 0
M  V30 4 N 1.299 0.0 0.0 0
M  V30 5 C 3.8971 0.0 0.0 0
M  V30 6 C 0.0 -0.75 0.0 0
M  V30 7 C 5.1961 -0.75 0.0 0
M  V30 8 C 3.8971 1.5 0.0 0
M  V30 9 C -1.299 0.0 0.0 0
M  V30 10 C 0.0 -2.25 0.0 0
M  V30 11 C 6.4951 0.0 0.0 0
M  V30 12 C 5.1961 2.25 0.0 0
M  V30 13 C -2.598 -0.75 0.0 0
M  V30 14 C -1.299 -3.0 0.0 0
M  V30 15 C 6.4951 1.5 0.0 0
M  V30 16 C -2.598 -2.25 0.0 0
M  V30 17 C 7.7942 2.25 0.0 0
M  V30 18 C -3.8971 -3.0 0.0 0
M  V30 19 C 9.0932 1.5 0.0 0
M  V30 20 N -3.8971 -4.5 0.0 0
M  V30 21 C 10.3923 2.25 0.0 0
M  V30 22 C -5.1961 -5.25 0.0 0
M  V30 23 C -2.598 -5.25 0.0 0
M  V30 24 C -5.1961 -6.75 0.0 0
M  V30 25 C -2.598 -6.75 0.0 0
M  V30 26 N -3.8971 -7.5 0.0 0
M  V30 27 C -3.8971 -9.0 0.0 0
M  V30 28 C -2.598 -9.75 0.0 0
M  V30 29 C -1.848 -11.049 0.0 0
M  V30 30 C -1.098 -9.75 0.0 0
M  V30 END ATOM
M  V30 BEGIN BOND
M  V30 1 2 1 2
M  V30 2 2 1 3
M  V30 3 1 1 4
M  V30 4 1 1 5
M  V30 5 1 4 6
M  V30 6 2 5 7
M  V30 7 1 5 8
M  V30 8 2 6 9
M  V30 9 1 6 10
M  V30 10 1 7 11
M  V30 11 2 8 12
M  V30 12 1 9 13
M  V30 13 2 10 14
M  V30 14 2 11 15
M  V30 15 2 13 16
M  V30 16 1 15 17
M  V30 17 1 16 18
M  V30 18 1 17 19
M  V30 19 1 18 20
M  V30 20 1 19 21
M  V30 21 1 20 22
M  V30 22 1 20 23
M  V30 23 1 22 24
M  V30 24 1 23 25
M  V30 25 1 24 26
M  V30 26 1 26 27
M  V30 27 1 27 28
M  V30 28 1 28 29
M  V30 29 1 28 30
M  V30 30 1 12 15
M  V30 31 1 14 16
M  V30 32 1 25 26
M  V30 33 1 29 30
M  V30 END BOND
M  V30 END CTAB
M  END
>  <Rack>
PathogenBox_PlateC

>  <Position>
D06

>  <Compound ID>
MMV688125

>  <Disease Set>
TUBERCULOSIS

>  <Trivial Name>


>  <Total Molecular Weight>
427.60

>  <Molecular Weight Parent Molecule>
427.60

>  <Molecular Formula>
C24H33N3O2S

>  <Salt Name>


>  <Salt Coefficient>


>  <cLogP>
3.60

>  <SMILES>
CCCc1ccc(cc1)S(=O)(=O)Nc2ccc(CN3CCN(CC4CC4)CC3)cc2

$$$$
Compound 196
Actelion Java MolfileCreator 2.0

  0  0  0  0  0  0              0 V3000
M  V30 BEGIN CTAB
M  V30 COUNTS 26 28 0 0 0
M  V30 BEGIN ATOM
M  V30 1 O 2.598 1.0 0.0 0
M  V30 2 C 2.598 0.0 0.0 0
M  V30 3 N 3.4641 -0.5 0.0 0
M  V30 4 C 1.732 -0.5 0.0 0
M  V30 5 C 4.3301 0.0 0.0 0
M  V30 6 O 0.866 0.0 0.0 0
M  V30 7 C 5.1961 -0.4999 0.0 0
M  V30 8 C 4.3301 0.9999 0.0 0
M  V30 9 C 0.0 -0.5 0.0 0
M  V30 10 O 5.1961 -1.5 0.0 0
M  V30 11 C 6.0621 0.0 0.0 0
M  V30 12 C 5.1961 1.4999 0.0 0
M  V30 13 C -0.866 0.0 0.0 0
M  V30 14 C 0.0 -1.4999 0.0 0
M  V30 15 C 6.0621 -2.0 0.0 0
M  V30 16 C 6.0621 1.0 0.0 0
M  V30 17 C -1.732 -0.4999 0.0 0
M  V30 18 C -0.866 1.0 0.0 0
M  V30 19 C -0.866 -1.9999 0.0 0
M  V30 20 N -1.732 -1.4999 0.0 0
M  V30 21 C -2.598 0.0 0.0 0
M  V30 22 C -1.732 1.5 0.0 0
M  V30 23 C -0.866 -2.9999 0.0 0
M  V30 24 C -2.598 1.0 0.0 0
M  V30 25 O -1.732 2.5 0.0 0
M  V30 26 C -2.598 3.0 0.0 0
M  V30 END ATOM
M  V30 BEGIN BOND
M  V30 1 2 1 2
M  V30 2 1 2 3
M  V30 3 1 2 4
M  V30 4 1 3 5
M  V30 5 1 4 6
M  V30 6 2 5 7
M  V30 7 1 5 8
M  V30 8 1 6 9
M  V30 9 1 7 10
M  V30 10 1 7 11
M  V30 11 2 8 12
M  V30 12 1 9 13
M  V30 13 2 9 14
M  V30 14 1 10 15
M  V30 15 2 11 16
M  V30 16 1 13 17
M  V30 17 2 13 18
M  V30 18 1 14 19
M  V30 19 1 17 20
M  V30 20 2 17 21
M  V30 21 1 18 22
M  V30 22 1 19 23
M  V30 23 1 21 24
M  V30 24 1 22 25
M  V30 25 1 25 26
M  V30 26 1 12 16
M  V30 27 2 19 20
M  V30 28 2 22 24
M  V30 END BOND
M  V30 END CTAB
M  END
>  <Rack>
PathogenBox_PlateC

>  <Position>
D07

>  <Compound ID>
MMV687188

>  <Disease Set>
TUBERCULOSIS

>  <Trivial Name>


>  <Total Molecular Weight>
352.38

>  <Molecular Weight Parent Molecule>
352.38

>  <Molecular Formula>
C20H20N2O4

>  <Salt Name>


>  <Salt Coefficient>


>  <cLogP>
2.96

>  <SMILES>
COc1ccc2nc(C)cc(OCC(=O)Nc3ccccc3OC)c2c1

$$$$
Compound 197
Actelion Java MolfileCreator 2.0

  0  0  0  0  0  0              0 V3000
M  V30 BEGIN CTAB
M  V30 COUNTS 26 29 0 0 0
M  V30 BEGIN ATOM
M  V30 1 N 2.598 1.0 0.0 0
M  V30 2 C 2.598 0.0 0.0 0
M  V30 3 C 3.4641 1.4999 0.0 0
M  V30 4 N 3.4641 -0.5 0.0 0
M  V30 5 N 1.732 -0.5 0.0 0
M  V30 6 N 3.4641 2.4999 0.0 0
M  V30 7 C 4.3301 1.0 0.0 0
M  V30 8 C 4.3301 0.0 0.0 0
M  V30 9 C 0.866 0.0 0.0 0 CFG=1
M  V30 10 C 1.732 -1.5 0.0 0
M  V30 11 C 4.3301 3.0 0.0 0
M  V30 12 C 5.1961 1.5 0.0 0
M  V30 13 C 0.866 1.0 0.0 0
M  V30 14 C 0.0 -0.5 0.0 0
M  V30 15 N 5.1961 2.5 0.0 0
M  V30 16 N 4.3301 4.0 0.0 0
M  V30 17 N 6.0621 1.0 0.0 0
M  V30 18 C 1.732 1.4999 0.0 0
M  V30 19 C 0.0 1.4999 0.0 0
M  V30 20 C 1.732 2.5 0.0 0
M  V30 21 C 0.0 2.5 0.0 0
M  V30 22 C 0.866 3.0 0.0 0
M  V30 23 C 2.598 2.9999 0.0 0
M  V30 24 C 0.866 4.0 0.0 0
M  V30 25 C 2.598 4.0 0.0 0
M  V30 26 C 1.732 4.5 0.0 0
M  V30 END ATOM
M  V30 BEGIN BOND
M  V30 1 2 1 2
M  V30 2 1 1 3
M  V30 3 1 2 4
M  V30 4 1 2 5
M  V30 5 2 3 6
M  V30 6 1 3 7
M  V30 7 2 4 8
M  V30 8 1 9 5 CFG=3
M  V30 9 1 5 10
M  V30 10 1 6 11
M  V30 11 2 7 12
M  V30 12 1 9 13
M  V30 13 1 9 14
M  V30 14 2 11 15
M  V30 15 1 11 16
M  V30 16 1 12 17
M  V30 17 2 13 18
M  V30 18 1 13 19
M  V30 19 1 18 20
M  V30 20 2 19 21
M  V30 21 2 20 22
M  V30 22 1 20 23
M  V30 23 1 22 24
M  V30 24 1 23 25
M  V30 25 1 24 26
M  V30 26 1 7 8
M  V30 27 1 12 15
M  V30 28 1 21 22
M  V30 29 1 25 26
M  V30 END BOND
M  V30 BEGIN COLLECTION
M  V30 MDLV30/STEABS ATOMS=(1 9)
M  V30 END COLLECTION
M  V30 END CTAB
M  END
>  <Rack>
PathogenBox_PlateC

>  <Position>
D08

>  <Compound ID>
MMV690103

>  <Disease Set>
KINETOPLASTIDS

>  <Trivial Name>


>  <Total Molecular Weight>
349.43

>  <Molecular Weight Parent Molecule>
349.43

>  <Molecular Formula>
C19H23N7

>  <Salt Name>


>  <Salt Coefficient>


>  <cLogP>
2.63

>  <SMILES>
C[C@@H](N(C)c1ncc2c(N)nc(N)nc2n1)c3ccc4CCCCc4c3

$$$$
Compound 198
Actelion Java MolfileCreator 2.0

  0  0  0  0  0  0              0 V3000
M  V30 BEGIN CTAB
M  V30 COUNTS 31 33 0 0 0
M  V30 BEGIN ATOM
M  V30 1 S 5.1961 -6.75 0.0 0
M  V30 2 O 5.9461 -5.451 0.0 0
M  V30 3 O 4.4461 -5.451 0.0 0
M  V30 4 N 6.4951 -7.5 0.0 0
M  V30 5 C 3.8971 -7.5 0.0 0
M  V30 6 C 7.7942 -6.75 0.0 0
M  V30 7 C 2.598 -6.75 0.0 0
M  V30 8 C 3.8971 -9.0 0.0 0
M  V30 9 C 9.0932 -7.5 0.0 0
M  V30 10 C 7.7942 -5.25 0.0 0
M  V30 11 C 1.299 -7.5 0.0 0
M  V30 12 C 2.598 -9.75 0.0 0
M  V30 13 C 10.3923 -6.75 0.0 0
M  V30 14 C 9.0932 -9.0 0.0 0
M  V30 15 C 9.0932 -4.5 0.0 0
M  V30 16 C 1.299 -9.0 0.0 0
M  V30 17 C 10.3923 -5.25 0.0 0
M  V30 18 C 9.0932 -3.0 0.0 0
M  V30 19 C 0.0 -9.75 0.0 0
M  V30 20 N 7.7942 -2.25 0.0 0
M  V30 21 C 0.0 -11.25 0.0 0
M  V30 22 C 7.7942 -0.75 0.0 0
M  V30 23 C 6.4951 -3.0 0.0 0
M  V30 24 C 6.4951 0.0 0.0 0
M  V30 25 C 5.1961 -2.25 0.0 0
M  V30 26 N 5.1961 -0.75 0.0 0
M  V30 27 C 3.8971 0.0 0.0 0
M  V30 28 C 2.598 -0.75 0.0 0
M  V30 29 C 1.299 0.0 0.0 0
M  V30 30 C 1.299 1.5 0.0 0
M  V30 31 C 0.0 -0.75 0.0 0
M  V30 END ATOM
M  V30 BEGIN BOND
M  V30 1 2 1 2
M  V30 2 2 1 3
M  V30 3 1 1 4
M  V30 4 1 1 5
M  V30 5 1 4 6
M  V30 6 2 5 7
M  V30 7 1 5 8
M  V30 8 2 6 9
M  V30 9 1 6 10
M  V30 10 1 7 11
M  V30 11 2 8 12
M  V30 12 1 9 13
M  V30 13 1 9 14
M  V30 14 2 10 15
M  V30 15 2 11 16
M  V30 16 2 13 17
M  V30 17 1 15 18
M  V30 18 1 16 19
M  V30 19 1 18 20
M  V30 20 1 19 21
M  V30 21 1 20 22
M  V30 22 1 20 23
M  V30 23 1 22 24
M  V30 24 1 23 25
M  V30 25 1 24 26
M  V30 26 1 26 27
M  V30 27 1 27 28
M  V30 28 1 28 29
M  V30 29 1 29 30
M  V30 30 1 29 31
M  V30 31 1 12 16
M  V30 32 1 15 17
M  V30 33 1 25 26
M  V30 END BOND
M  V30 END CTAB
M  END
>  <Rack>
PathogenBox_PlateC

>  <Position>
D09

>  <Compound ID>
MMV688124

>  <Disease Set>
TUBERCULOSIS

>  <Trivial Name>


>  <Total Molecular Weight>
443.65

>  <Molecular Weight Parent Molecule>
443.65

>  <Molecular Formula>
C25H37N3O2S

>  <Salt Name>


>  <Salt Coefficient>


>  <cLogP>
4.30

>  <SMILES>
CCc1ccc(cc1)S(=O)(=O)Nc2cc(CN3CCN(CCC(C)C)CC3)ccc2C

$$$$
Compound 199
Actelion Java MolfileCreator 2.0

  0  0  0  0  0  0              0 V3000
M  V30 BEGIN CTAB
M  V30 COUNTS 31 34 0 0 0
M  V30 BEGIN ATOM
M  V30 1 S 6.1096 -0.0932 0.0 0
M  V30 2 C 5.1961 -0.5 0.0 0
M  V30 3 C 6.7788 -0.8364 0.0 0
M  V30 4 C 4.3301 0.0 0.0 0
M  V30 5 C 5.3006 -1.4945 0.0 0
M  V30 6 C 6.2788 -1.7024 0.0 0
M  V30 7 O 4.3301 1.0 0.0 0
M  V30 8 N 3.4641 -0.5 0.0 0
M  V30 9 C 2.598 0.0 0.0 0 CFG=1
M  V30 10 C 1.732 -0.5 0.0 0
M  V30 11 C 2.598 1.0 0.0 0
M  V30 12 O 0.866 0.0 0.0 0
M  V30 13 N 1.732 -1.5 0.0 0
M  V30 14 C 1.732 1.5 0.0 0
M  V30 15 C 2.598 -2.0 0.0 0
M  V30 16 C 1.732 2.5 0.0 0
M  V30 17 C 0.866 1.0 0.0 0
M  V30 18 C 2.598 -3.0 0.0 0
M  V30 19 C 3.4641 -1.5 0.0 0
M  V30 20 C 0.866 3.0 0.0 0
M  V30 21 C 0.0 1.5 0.0 0
M  V30 22 N 1.732 -3.4999 0.0 0
M  V30 23 C 3.4641 -3.5 0.0 0
M  V30 24 C 4.3301 -2.0 0.0 0
M  V30 25 C 0.0 2.5 0.0 0
M  V30 26 C 0.866 -2.9999 0.0 0
M  V30 27 C 1.732 -4.4999 0.0 0
M  V30 28 C 4.3301 -3.0 0.0 0
M  V30 29 C 0.0 -3.4999 0.0 0
M  V30 30 C 0.866 -4.9999 0.0 0
M  V30 31 O 0.0 -4.4999 0.0 0
M  V30 END ATOM
M  V30 BEGIN BOND
M  V30 1 1 1 2
M  V30 2 1 1 3
M  V30 3 1 2 4
M  V30 4 2 2 5
M  V30 5 2 3 6
M  V30 6 2 4 7
M  V30 7 1 4 8
M  V30 8 1 9 8 CFG=1
M  V30 9 1 9 10
M  V30 10 1 9 11
M  V30 11 2 10 12
M  V30 12 1 10 13
M  V30 13 1 11 14
M  V30 14 1 13 15
M  V30 15 2 14 16
M  V30 16 1 14 17
M  V30 17 2 15 18
M  V30 18 1 15 19
M  V30 19 1 16 20
M  V30 20 2 17 21
M  V30 21 1 18 22
M  V30 22 1 18 23
M  V30 23 2 19 24
M  V30 24 2 20 25
M  V30 25 1 22 26
M  V30 26 1 22 27
M  V30 27 2 23 28
M  V30 28 1 26 29
M  V30 29 1 27 30
M  V30 30 1 29 31
M  V30 31 1 5 6
M  V30 32 1 21 25
M  V30 33 1 24 28
M  V30 34 1 30 31
M  V30 END BOND
M  V30 BEGIN COLLECTION
M  V30 MDLV30/STEABS ATOMS=(1 9)
M  V30 END COLLECTION
M  V30 END CTAB
M  END
>  <Rack>
PathogenBox_PlateC

>  <Position>
D10

>  <Compound ID>
MMV688845

>  <Disease Set>
TUBERCULOSIS

>  <Trivial Name>


>  <Total Molecular Weight>
435.54

>  <Molecular Weight Parent Molecule>
435.54

>  <Molecular Formula>
C24H25N3O3S

>  <Salt Name>


>  <Salt Coefficient>


>  <cLogP>
3.23

>  <SMILES>
O=C(Nc1ccccc1N2CCOCC2)[C@@H](Cc3ccccc3)NC(=O)c4cccs4

$$$$
Compound 200
Actelion Java MolfileCreator 2.0

  0  0  0  0  0  0              0 V3000
M  V30 BEGIN CTAB
M  V30 COUNTS 25 28 0 0 0
M  V30 BEGIN ATOM
M  V30 1 O 2.598 0.0 0.0 0
M  V30 2 C 1.732 -0.5 0.0 0
M  V30 3 N 0.866 0.0 0.0 0
M  V30 4 C 1.732 -1.5 0.0 0
M  V30 5 C 0.0 -0.5 0.0 0
M  V30 6 N 2.598 -1.9999 0.0 0
M  V30 7 C 0.866 -2.0 0.0 0
M  V30 8 N -0.1045 -1.4945 0.0 0
M  V30 9 N -0.9135 -0.0932 0.0 0
M  V30 10 C 2.598 -2.9999 0.0 0
M  V30 11 C 0.866 -3.0 0.0 0
M  V30 12 C -1.0826 -1.7024 0.0 0
M  V30 13 C -1.5826 -0.8364 0.0 0
M  V30 14 C -1.1214 0.8848 0.0 0
M  V30 15 C 1.732 -3.5 0.0 0
M  V30 16 C 3.4641 -3.4999 0.0 0
M  V30 17 C -1.5826 -2.5684 0.0 0
M  V30 18 C -2.5826 -0.8364 0.0 0
M  V30 19 C -0.3783 1.554 0.0 0
M  V30 20 C 1.732 -4.5 0.0 0
M  V30 21 C 3.4641 -4.4999 0.0 0
M  V30 22 C -2.5826 -2.5684 0.0 0
M  V30 23 C -3.0826 -1.7024 0.0 0
M  V30 24 C -0.5862 2.5321 0.0 0
M  V30 25 C 2.598 -4.9999 0.0 0
M  V30 END ATOM
M  V30 BEGIN BOND
M  V30 1 2 1 2
M  V30 2 1 2 3
M  V30 3 1 2 4
M  V30 4 1 3 5
M  V30 5 2 4 6
M  V30 6 1 4 7
M  V30 7 2 5 8
M  V30 8 1 5 9
M  V30 9 1 6 10
M  V30 10 2 7 11
M  V30 11 1 8 12
M  V30 12 1 9 13
M  V30 13 1 9 14
M  V30 14 1 10 15
M  V30 15 2 10 16
M  V30 16 1 12 17
M  V30 17 1 13 18
M  V30 18 1 14 19
M  V30 19 2 15 20
M  V30 20 1 16 21
M  V30 21 2 17 22
M  V30 22 2 18 23
M  V30 23 1 19 24
M  V30 24 1 20 25
M  V30 25 1 11 15
M  V30 26 2 12 13
M  V30 27 2 21 25
M  V30 28 1 22 23
M  V30 END BOND
M  V30 END CTAB
M  END
>  <Rack>
PathogenBox_PlateC

>  <Position>
D11

>  <Compound ID>
MMV1030799

>  <Disease Set>
MALARIA

>  <Trivial Name>


>  <Total Molecular Weight>
330.39

>  <Molecular Weight Parent Molecule>
330.39

>  <Molecular Formula>
C20H18N4O

>  <Salt Name>


>  <Salt Coefficient>


>  <cLogP>
3.99

>  <SMILES>
CCCn1c(NC(=O)c2ccc3ccccc3n2)nc4ccccc14

$$$$
Compound 201
Actelion Java MolfileCreator 2.0

  0  0  0  0  0  0              0 V3000
M  V30 BEGIN CTAB
M  V30 COUNTS 24 27 0 0 0
M  V30 BEGIN ATOM
M  V30 1 Cl 8.1588 -0.0817 0.0 0
M  V30 2 C 7.1643 0.0228 0.0 0
M  V30 3 C 6.7575 0.9363 0.0 0
M  V30 4 C 6.5765 -0.7861 0.0 0
M  V30 5 C 5.763 1.0408 0.0 0
M  V30 6 C 5.582 -0.6816 0.0 0
M  V30 7 C 5.1752 0.2318 0.0 0
M  V30 8 N 4.1807 0.3364 0.0 0
M  V30 9 N 3.6807 1.2024 0.0 0
M  V30 10 C 3.5116 -0.4067 0.0 0
M  V30 11 N 2.7026 0.9945 0.0 0
M  V30 12 C 2.598 0.0 0.0 0
M  V30 13 C 1.732 -0.5 0.0 0
M  V30 14 O 0.866 0.0 0.0 0
M  V30 15 C 0.0 -0.5 0.0 0
M  V30 16 C -0.866 0.0 0.0 0
M  V30 17 C 0.0 -1.4999 0.0 0
M  V30 18 C -1.732 -0.4999 0.0 0
M  V30 19 C -0.866 1.0 0.0 0
M  V30 20 C -0.866 -1.9999 0.0 0
M  V30 21 N -1.732 -1.4999 0.0 0
M  V30 22 C -2.598 0.0 0.0 0
M  V30 23 C -1.732 1.5 0.0 0
M  V30 24 C -2.598 1.0 0.0 0
M  V30 END ATOM
M  V30 BEGIN BOND
M  V30 1 1 1 2
M  V30 2 2 2 3
M  V30 3 1 2 4
M  V30 4 1 3 5
M  V30 5 2 4 6
M  V30 6 2 5 7
M  V30 7 1 7 8
M  V30 8 1 8 9
M  V30 9 1 8 10
M  V30 10 2 9 11
M  V30 11 2 10 12
M  V30 12 1 12 13
M  V30 13 1 13 14
M  V30 14 1 14 15
M  V30 15 1 15 16
M  V30 16 2 15 17
M  V30 17 1 16 18
M  V30 18 2 16 19
M  V30 19 1 17 20
M  V30 20 1 18 21
M  V30 21 2 18 22
M  V30 22 1 19 23
M  V30 23 1 22 24
M  V30 24 1 6 7
M  V30 25 1 11 12
M  V30 26 2 20 21
M  V30 27 2 23 24
M  V30 END BOND
M  V30 END CTAB
M  END
>  <Rack>
PathogenBox_PlateC

>  <Position>
E02

>  <Compound ID>
MMV675994

>  <Disease Set>
CRYPTOSPORIDIOSIS

>  <Trivial Name>


>  <Total Molecular Weight>
336.78

>  <Molecular Weight Parent Molecule>
336.78

>  <Molecular Formula>
C18H13N4OCl

>  <Salt Name>


>  <Salt Coefficient>


>  <cLogP>
2.80

>  <SMILES>
Clc1ccc(cc1)n2cc(COc3ccnc4ccccc34)nn2

$$$$
Compound 202
Actelion Java MolfileCreator 2.0

  0  0  0  0  0  0              0 V3000
M  V30 BEGIN CTAB
M  V30 COUNTS 31 34 0 0 0
M  V30 BEGIN ATOM
M  V30 1 O 2.598 0.0 0.0 0
M  V30 2 C 1.732 -0.5 0.0 0
M  V30 3 O 0.866 0.0 0.0 0
M  V30 4 N 1.732 -1.5 0.0 0
M  V30 5 C 0.866 0.9999 0.0 0
M  V30 6 C 0.866 -2.0 0.0 0
M  V30 7 C 2.598 -1.9999 0.0 0
M  V30 8 C 1.866 1.0 0.0 0
M  V30 9 C 0.866 1.9999 0.0 0
M  V30 10 C -0.1339 0.9999 0.0 0
M  V30 11 C 0.866 -2.9999 0.0 0
M  V30 12 C 2.598 -3.0 0.0 0
M  V30 13 N 1.732 -3.4999 0.0 0
M  V30 14 C 1.732 -4.5 0.0 0
M  V30 15 N 0.923 -5.0877 0.0 0
M  V30 16 C 2.541 -5.0877 0.0 0
M  V30 17 N 1.232 -6.0388 0.0 0
M  V30 18 C 2.232 -6.0388 0.0 0
M  V30 19 C 2.8198 -6.8478 0.0 0
M  V30 20 C 2.413 -7.7614 0.0 0
M  V30 21 C 3.8143 -6.7433 0.0 0
M  V30 22 C 3.0008 -8.5704 0.0 0
M  V30 23 C 4.4021 -7.5523 0.0 0
M  V30 24 C 3.9954 -8.4658 0.0 0
M  V30 25 O 4.5831 -9.2749 0.0 0
M  V30 26 C 5.5777 -9.1703 0.0 0
M  V30 27 C 6.1654 -9.9793 0.0 0
M  V30 28 C 5.9844 -8.2568 0.0 0
M  V30 29 C 7.16 -9.8748 0.0 0
M  V30 30 C 6.9789 -8.1523 0.0 0
M  V30 31 C 7.5667 -8.9613 0.0 0
M  V30 END ATOM
M  V30 BEGIN BOND
M  V30 1 2 1 2
M  V30 2 1 2 3
M  V30 3 1 2 4
M  V30 4 1 3 5
M  V30 5 1 4 6
M  V30 6 1 4 7
M  V30 7 1 5 8
M  V30 8 1 5 9
M  V30 9 1 5 10
M  V30 10 1 6 11
M  V30 11 1 7 12
M  V30 12 1 11 13
M  V30 13 1 13 14
M  V30 14 1 14 15
M  V30 15 2 14 16
M  V30 16 1 15 17
M  V30 17 1 16 18
M  V30 18 1 18 19
M  V30 19 2 19 20
M  V30 20 1 19 21
M  V30 21 1 20 22
M  V30 22 2 21 23
M  V30 23 2 22 24
M  V30 24 1 24 25
M  V30 25 1 25 26
M  V30 26 2 26 27
M  V30 27 1 26 28
M  V30 28 1 27 29
M  V30 29 2 28 30
M  V30 30 2 29 31
M  V30 31 1 12 13
M  V30 32 2 17 18
M  V30 33 1 23 24
M  V30 34 1 30 31
M  V30 END BOND
M  V30 END CTAB
M  END
>  <Rack>
PathogenBox_PlateC

>  <Position>
E03

>  <Compound ID>
MMV676057

>  <Disease Set>
KINETOPLASTIDS

>  <Trivial Name>


>  <Total Molecular Weight>
420.50

>  <Molecular Weight Parent Molecule>
420.50

>  <Molecular Formula>
C24H28N4O3

>  <Salt Name>


>  <Salt Coefficient>


>  <cLogP>
4.23

>  <SMILES>
CC(C)(C)OC(=O)N1CCN(CC1)c2cc(n[nH]2)c3ccc(Oc4ccccc4)cc3

$$$$
Compound 203
Actelion Java MolfileCreator 2.0

  0  0  0  0  0  0              0 V3000
M  V30 BEGIN CTAB
M  V30 COUNTS 25 27 0 0 0
M  V30 BEGIN ATOM
M  V30 1 Cl 6.4951 -4.5 0.0 0
M  V30 2 C 6.4951 -3.0 0.0 0
M  V30 3 C 7.7942 -2.25 0.0 0
M  V30 4 C 5.1961 -2.25 0.0 0
M  V30 5 C 7.7942 -0.75 0.0 0
M  V30 6 C 5.1961 -0.75 0.0 0
M  V30 7 Cl 9.0932 0.0 0.0 0
M  V30 8 C 6.4951 0.0 0.0 0
M  V30 9 C 3.8971 0.0 0.0 0
M  V30 10 N 2.598 -0.75 0.0 0
M  V30 11 C 1.299 0.0 0.0 0
M  V30 12 O 1.299 1.5 0.0 0
M  V30 13 C 0.0 -0.75 0.0 0
M  V30 14 N -1.3703 -0.1398 0.0 0
M  V30 15 C -0.1567 -2.2417 0.0 0
M  V30 16 C -2.374 -1.2546 0.0 0
M  V30 17 C -1.8338 1.2866 0.0 0
M  V30 18 N -1.624 -2.5536 0.0 0
M  V30 19 C 0.9579 -3.2454 0.0 0
M  V30 20 C -3.8412 -0.9427 0.0 0
M  V30 21 C -3.301 1.5985 0.0 0
M  V30 22 F 1.9616 -2.1307 0.0 0
M  V30 23 F 2.0726 -4.2491 0.0 0
M  V30 24 F -0.0457 -4.3601 0.0 0
M  V30 25 C -4.3047 0.4838 0.0 0
M  V30 END ATOM
M  V30 BEGIN BOND
M  V30 1 1 1 2
M  V30 2 2 2 3
M  V30 3 1 2 4
M  V30 4 1 3 5
M  V30 5 2 4 6
M  V30 6 1 5 7
M  V30 7 2 5 8
M  V30 8 1 6 9
M  V30 9 1 9 10
M  V30 10 1 10 11
M  V30 11 2 11 12
M  V30 12 1 11 13
M  V30 13 1 13 14
M  V30 14 2 13 15
M  V30 15 1 14 16
M  V30 16 1 14 17
M  V30 17 1 15 18
M  V30 18 1 15 19
M  V30 19 1 16 20
M  V30 20 2 17 21
M  V30 21 1 19 22
M  V30 22 1 19 23
M  V30 23 1 19 24
M  V30 24 2 20 25
M  V30 25 1 6 8
M  V30 26 2 16 18
M  V30 27 1 21 25
M  V30 END BOND
M  V30 END CTAB
M  END
>  <Rack>
PathogenBox_PlateC

>  <Position>
E04

>  <Compound ID>
MMV687699

>  <Disease Set>
TUBERCULOSIS

>  <Trivial Name>


>  <Total Molecular Weight>
388.17

>  <Molecular Weight Parent Molecule>
388.17

>  <Molecular Formula>
C16H10N3OCl2F3

>  <Salt Name>


>  <Salt Coefficient>


>  <cLogP>
3.63

>  <SMILES>
FC(F)(F)c1nc2ccccn2c1C(=O)NCc3cc(Cl)cc(Cl)c3

$$$$
Compound 204
Actelion Java MolfileCreator 2.0

  0  0  0  0  0  0              0 V3000
M  V30 BEGIN CTAB
M  V30 COUNTS 22 24 0 0 0
M  V30 BEGIN ATOM
M  V30 1 O 2.598 0.0 0.0 0
M  V30 2 C 1.732 -0.5 0.0 0
M  V30 3 N 0.866 0.0 0.0 0
M  V30 4 C 1.732 -1.5 0.0 0
M  V30 5 C 0.0 -0.5 0.0 0
M  V30 6 N 0.923 -2.0877 0.0 0
M  V30 7 C 2.541 -2.0877 0.0 0
M  V30 8 C 0.1305 -1.4914 0.0 0
M  V30 9 C -0.7933 0.1087 0.0 0
M  V30 10 C 1.232 -3.0388 0.0 0
M  V30 11 C 2.232 -3.0388 0.0 0
M  V30 12 C -0.4782 -2.2847 0.0 0
M  V30 13 C -1.7847 -0.0217 0.0 0
M  V30 14 C 0.732 -3.9048 0.0 0
M  V30 15 C 2.732 -3.9048 0.0 0
M  V30 16 C -1.4696 -2.4153 0.0 0
M  V30 17 C -2.3935 -0.8151 0.0 0
M  V30 18 C 1.232 -4.7708 0.0 0
M  V30 19 C 2.232 -4.7708 0.0 0
M  V30 20 C 3.732 -3.9048 0.0 0
M  V30 21 C -2.263 -1.8065 0.0 0
M  V30 22 C 0.732 -5.6369 0.0 0
M  V30 END ATOM
M  V30 BEGIN BOND
M  V30 1 2 1 2
M  V30 2 1 2 3
M  V30 3 1 2 4
M  V30 4 1 3 5
M  V30 5 1 4 6
M  V30 6 2 4 7
M  V30 7 1 5 8
M  V30 8 1 5 9
M  V30 9 1 6 10
M  V30 10 1 7 11
M  V30 11 1 8 12
M  V30 12 1 9 13
M  V30 13 1 10 14
M  V30 14 1 11 15
M  V30 15 1 12 16
M  V30 16 1 13 17
M  V30 17 2 14 18
M  V30 18 2 15 19
M  V30 19 1 15 20
M  V30 20 1 16 21
M  V30 21 1 18 22
M  V30 22 2 10 11
M  V30 23 1 17 21
M  V30 24 1 18 19
M  V30 END BOND
M  V30 END CTAB
M  END
>  <Rack>
PathogenBox_PlateC

>  <Position>
E05

>  <Compound ID>
MMV687146

>  <Disease Set>
TUBERCULOSIS

>  <Trivial Name>


>  <Total Molecular Weight>
298.42

>  <Molecular Weight Parent Molecule>
298.42

>  <Molecular Formula>
C19H26N2O

>  <Salt Name>


>  <Salt Coefficient>


>  <cLogP>
4.85

>  <SMILES>
Cc1cc(C)c2cc([nH]c2c1)C(=O)NC3CCCCCCC3

$$$$
Compound 205
Actelion Java MolfileCreator 2.0

  0  0  0  0  0  0              0 V3000
M  V30 BEGIN CTAB
M  V30 COUNTS 39 43 0 0 0
M  V30 BEGIN ATOM
M  V30 1 Cl 5.9738 2.0167 0.0 0
M  V30 2 C 5.6648 1.0657 0.0 0
M  V30 3 C 4.6866 0.8577 0.0 0
M  V30 4 C 6.3339 0.3225 0.0 0
M  V30 5 N 4.3776 -0.0932 0.0 0
M  V30 6 C 6.0249 -0.6284 0.0 0
M  V30 7 C 3.4641 -0.5 0.0 0
M  V30 8 C 5.0467 -0.8364 0.0 0
M  V30 9 C 3.5686 -1.4945 0.0 0
M  V30 10 C 2.598 0.0 0.0 0
M  V30 11 N 4.5467 -1.7024 0.0 0
M  V30 12 C 2.8254 -2.1636 0.0 0
M  V30 13 O 2.598 1.0 0.0 0
M  V30 14 N 1.732 -0.5 0.0 0
M  V30 15 C 3.0333 -3.1418 0.0 0
M  V30 16 C 0.866 0.0 0.0 0
M  V30 17 C 0.0 -0.5 0.0 0
M  V30 18 C -0.866 0.0 0.0 0
M  V30 19 C 0.0 -1.4999 0.0 0
M  V30 20 C -1.732 -0.4999 0.0 0
M  V30 21 C -0.866 -1.9999 0.0 0
M  V30 22 C -1.732 -1.4999 0.0 0
M  V30 23 N -2.598 -1.9999 0.0 0
M  V30 24 C -3.4641 -1.4999 0.0 0
M  V30 25 C -2.598 -2.9999 0.0 0
M  V30 26 C -4.3301 -1.9999 0.0 0
M  V30 27 C -3.4641 -3.4999 0.0 0
M  V30 28 C -4.3301 -2.9999 0.0 0
M  V30 29 C -5.1961 -3.4999 0.0 0
M  V30 30 C -6.0621 -2.9999 0.0 0
M  V30 31 C -5.1961 -4.4999 0.0 0
M  V30 32 C -6.9282 -3.4999 0.0 0
M  V30 33 C -6.0621 -4.9999 0.0 0
M  V30 34 C -6.9282 -4.4999 0.0 0
M  V30 35 O -7.7942 -4.9999 0.0 0
M  V30 36 C -7.7942 -5.9999 0.0 0
M  V30 37 F -6.7942 -5.9999 0.0 0
M  V30 38 F -7.7942 -6.9999 0.0 0
M  V30 39 F -8.7942 -5.9999 0.0 0
M  V30 END ATOM
M  V30 BEGIN BOND
M  V30 1 1 1 2
M  V30 2 2 2 3
M  V30 3 1 2 4
M  V30 4 1 3 5
M  V30 5 2 4 6
M  V30 6 1 5 7
M  V30 7 1 5 8
M  V30 8 2 7 9
M  V30 9 1 7 10
M  V30 10 2 8 11
M  V30 11 1 9 12
M  V30 12 2 10 13
M  V30 13 1 10 14
M  V30 14 1 12 15
M  V30 15 1 14 16
M  V30 16 1 16 17
M  V30 17 2 17 18
M  V30 18 1 17 19
M  V30 19 1 18 20
M  V30 20 2 19 21
M  V30 21 2 20 22
M  V30 22 1 22 23
M  V30 23 1 23 24
M  V30 24 1 23 25
M  V30 25 1 24 26
M  V30 26 1 25 27
M  V30 27 1 26 28
M  V30 28 1 28 29
M  V30 29 2 29 30
M  V30 30 1 29 31
M  V30 31 1 30 32
M  V30 32 2 31 33
M  V30 33 2 32 34
M  V30 34 1 34 35
M  V30 35 1 35 36
M  V30 36 1 36 37
M  V30 37 1 36 38
M  V30 38 1 36 39
M  V30 39 1 6 8
M  V30 40 1 9 11
M  V30 41 1 21 22
M  V30 42 1 27 28
M  V30 43 1 33 34
M  V30 END BOND
M  V30 END CTAB
M  END
>  <Rack>
PathogenBox_PlateC

>  <Position>
E06

>  <Compound ID>
MMV687696

>  <Disease Set>
TUBERCULOSIS

>  <Trivial Name>


>  <Total Molecular Weight>
557.01

>  <Molecular Weight Parent Molecule>
557.01

>  <Molecular Formula>
C29H28N4O2ClF3

>  <Salt Name>


>  <Salt Coefficient>


>  <cLogP>
6.61

>  <SMILES>
CCc1nc2ccc(Cl)cn2c1C(=O)NCc3ccc(cc3)N4CCC(CC4)c5ccc(OC(F)(F)F)cc5

$$$$
Compound 206
Actelion Java MolfileCreator 2.0

  0  0  0  0  0  0              0 V3000
M  V30 BEGIN CTAB
M  V30 COUNTS 24 27 0 0 0
M  V30 BEGIN ATOM
M  V30 1 Cl 0.8073 -3.9318 0.0 0
M  V30 2 C 1.4764 -3.1887 0.0 0
M  V30 3 N 2.4546 -3.3966 0.0 0
M  V30 4 N 1.1674 -2.2376 0.0 0
M  V30 5 C 3.1237 -2.6534 0.0 0
M  V30 6 C 1.8365 -1.4945 0.0 0
M  V30 7 C 2.8147 -1.7024 0.0 0
M  V30 8 C 4.1018 -2.8614 0.0 0
M  V30 9 N 1.732 -0.5 0.0 0
M  V30 10 N 3.3147 -0.8364 0.0 0
M  V30 11 O 4.5086 -3.7749 0.0 0
M  V30 12 C 4.845 -2.1922 0.0 0
M  V30 13 C 2.6455 -0.0932 0.0 0
M  V30 14 C 0.866 0.0 0.0 0
M  V30 15 C 5.5031 -3.6704 0.0 0
M  V30 16 C 5.711 -2.6922 0.0 0
M  V30 17 C 0.0 -0.5 0.0 0
M  V30 18 C -0.866 0.0 0.0 0
M  V30 19 C 0.0 -1.4999 0.0 0
M  V30 20 C -1.732 -0.4999 0.0 0
M  V30 21 C -0.866 -1.9999 0.0 0
M  V30 22 C -1.732 -1.4999 0.0 0
M  V30 23 O -2.598 -1.9999 0.0 0
M  V30 24 C -2.598 -2.9999 0.0 0
M  V30 END ATOM
M  V30 BEGIN BOND
M  V30 1 1 1 2
M  V30 2 2 2 3
M  V30 3 1 2 4
M  V30 4 1 3 5
M  V30 5 2 4 6
M  V30 6 2 5 7
M  V30 7 1 5 8
M  V30 8 1 6 9
M  V30 9 1 7 10
M  V30 10 1 8 11
M  V30 11 2 8 12
M  V30 12 1 9 13
M  V30 13 1 9 14
M  V30 14 1 11 15
M  V30 15 1 12 16
M  V30 16 1 14 17
M  V30 17 2 17 18
M  V30 18 1 17 19
M  V30 19 1 18 20
M  V30 20 2 19 21
M  V30 21 2 20 22
M  V30 22 1 22 23
M  V30 23 1 23 24
M  V30 24 1 6 7
M  V30 25 2 10 13
M  V30 26 2 15 16
M  V30 27 1 21 22
M  V30 END BOND
M  V30 END CTAB
M  END
>  <Rack>
PathogenBox_PlateC

>  <Position>
E07

>  <Compound ID>
MMV687170

>  <Disease Set>
TUBERCULOSIS

>  <Trivial Name>


>  <Total Molecular Weight>
340.76

>  <Molecular Weight Parent Molecule>
340.76

>  <Molecular Formula>
C17H13N4O2Cl

>  <Salt Name>


>  <Salt Coefficient>


>  <cLogP>
3.22

>  <SMILES>
COc1ccc(Cn2cnc3c(nc(Cl)nc23)c4occc4)cc1

$$$$
Compound 207
Actelion Java MolfileCreator 2.0

  0  0  0  0  0  0              0 V3000
M  V30 BEGIN CTAB
M  V30 COUNTS 31 34 0 0 0
M  V30 BEGIN ATOM
M  V30 1 O 5.1961 1.5 0.0 0
M  V30 2 C 6.0621 1.0 0.0 0
M  V30 3 C 4.3301 1.0 0.0 0
M  V30 4 C 6.0621 0.0 0.0 0
M  V30 5 C 6.9282 1.5 0.0 0
M  V30 6 C 3.4641 1.5 0.0 0
M  V30 7 C 4.3301 0.0 0.0 0
M  V30 8 C 6.9282 -0.4999 0.0 0
M  V30 9 C 7.7942 0.9999 0.0 0
M  V30 10 C 2.598 0.9999 0.0 0
M  V30 11 C 3.4641 -0.4999 0.0 0
M  V30 12 C 7.7942 0.0 0.0 0
M  V30 13 C 2.598 0.0 0.0 0
M  V30 14 O 8.6602 -0.5 0.0 0
M  V30 15 C 1.732 -0.5 0.0 0 CFG=2
M  V30 16 C 9.5262 0.0 0.0 0
M  V30 17 N 0.866 0.0 0.0 0
M  V30 18 C 1.732 -1.5 0.0 0
M  V30 19 C 0.866 1.0 0.0 0
M  V30 20 C 0.0 -0.5 0.0 0
M  V30 21 N 1.732 1.4999 0.0 0
M  V30 22 N 0.0 1.4999 0.0 0
M  V30 23 C 1.732 2.5 0.0 0
M  V30 24 C 0.0 2.5 0.0 0
M  V30 25 N 2.598 3.0 0.0 0
M  V30 26 C 0.866 3.0 0.0 0
M  V30 27 C 2.598 4.0 0.0 0
M  V30 28 C 0.866 3.9999 0.0 0
M  V30 29 N 1.732 4.5 0.0 0
M  V30 30 N 3.4641 4.5 0.0 0
M  V30 31 N 0.0 4.4999 0.0 0
M  V30 END ATOM
M  V30 BEGIN BOND
M  V30 1 1 1 2
M  V30 2 1 1 3
M  V30 3 2 2 4
M  V30 4 1 2 5
M  V30 5 2 3 6
M  V30 6 1 3 7
M  V30 7 1 4 8
M  V30 8 2 5 9
M  V30 9 1 6 10
M  V30 10 2 7 11
M  V30 11 2 8 12
M  V30 12 2 10 13
M  V30 13 1 12 14
M  V30 14 1 15 13
M  V30 15 1 14 16
M  V30 16 1 15 17 CFG=1
M  V30 17 1 15 18
M  V30 18 1 17 19
M  V30 19 1 17 20
M  V30 20 2 19 21
M  V30 21 1 19 22
M  V30 22 1 21 23
M  V30 23 2 22 24
M  V30 24 2 23 25
M  V30 25 1 23 26
M  V30 26 1 25 27
M  V30 27 2 26 28
M  V30 28 2 27 29
M  V30 29 1 27 30
M  V30 30 1 28 31
M  V30 31 1 9 12
M  V30 32 1 11 13
M  V30 33 1 24 26
M  V30 34 1 28 29
M  V30 END BOND
M  V30 BEGIN COLLECTION
M  V30 MDLV30/STEABS ATOMS=(1 15)
M  V30 END COLLECTION
M  V30 END CTAB
M  END
>  <Rack>
PathogenBox_PlateC

>  <Position>
E08

>  <Compound ID>
MMV690102

>  <Disease Set>
KINETOPLASTIDS

>  <Trivial Name>


>  <Total Molecular Weight>
417.46

>  <Molecular Weight Parent Molecule>
417.46

>  <Molecular Formula>
C22H23N7O2

>  <Salt Name>


>  <Salt Coefficient>


>  <cLogP>
2.80

>  <SMILES>
COc1ccc(Oc2ccc(cc2)[C@@H](C)N(C)c3ncc4c(N)nc(N)nc4n3)cc1

$$$$
Compound 208
Actelion Java MolfileCreator 2.0

  0  0  0  0  0  0              0 V3000
M  V30 BEGIN CTAB
M  V30 COUNTS 26 29 0 0 0
M  V30 BEGIN ATOM
M  V30 1 O 1.732 -0.5 0.0 0
M  V30 2 C 0.866 0.0 0.0 0
M  V30 3 N 0.866 1.0 0.0 0
M  V30 4 C 0.0 -0.5 0.0 0
M  V30 5 C 1.732 1.4999 0.0 0
M  V30 6 C 0.0 1.4999 0.0 0
M  V30 7 N -0.9135 -0.0932 0.0 0
M  V30 8 C -0.1045 -1.4945 0.0 0
M  V30 9 C 1.732 2.5 0.0 0 CFG=2
M  V30 10 C 0.0 2.5 0.0 0
M  V30 11 N -1.5826 -0.8364 0.0 0
M  V30 12 C -1.0826 -1.7024 0.0 0
M  V30 13 C 0.5646 -2.2376 0.0 0
M  V30 14 O 0.866 3.0 0.0 0
M  V30 15 C 2.598 3.0 0.0 0
M  V30 16 C -1.3916 -2.6534 0.0 0
M  V30 17 C 0.2555 -3.1887 0.0 0
M  V30 18 N 3.4641 2.5 0.0 0
M  V30 19 C 2.598 3.9999 0.0 0
M  V30 20 C -0.7225 -3.3966 0.0 0
M  V30 21 C 4.3301 2.9999 0.0 0
M  V30 22 C 3.4641 4.5 0.0 0
M  V30 23 C 4.3301 4.0 0.0 0
M  V30 24 C 5.1961 2.4999 0.0 0
M  V30 25 N 3.4641 5.5 0.0 0
M  V30 26 C 2.598 6.0 0.0 0
M  V30 END ATOM
M  V30 BEGIN BOND
M  V30 1 2 1 2
M  V30 2 1 2 3
M  V30 3 1 2 4
M  V30 4 1 3 5
M  V30 5 1 3 6
M  V30 6 2 4 7
M  V30 7 1 4 8
M  V30 8 1 9 5
M  V30 9 1 6 10
M  V30 10 1 7 11
M  V30 11 2 8 12
M  V30 12 1 8 13
M  V30 13 1 9 14
M  V30 14 1 9 15 CFG=3
M  V30 15 1 12 16
M  V30 16 2 13 17
M  V30 17 2 15 18
M  V30 18 1 15 19
M  V30 19 2 16 20
M  V30 20 1 18 21
M  V30 21 2 19 22
M  V30 22 2 21 23
M  V30 23 1 21 24
M  V30 24 1 22 25
M  V30 25 1 25 26
M  V30 26 1 10 14
M  V30 27 1 11 12
M  V30 28 1 17 20
M  V30 29 1 22 23
M  V30 END BOND
M  V30 BEGIN COLLECTION
M  V30 MDLV30/STERAC1 ATOMS=(1 9)
M  V30 END COLLECTION
M  V30 END CTAB
M  END
>  <Rack>
PathogenBox_PlateC

>  <Position>
E09

>  <Compound ID>
MMV689709

>  <Disease Set>
KINETOPLASTIDS

>  <Trivial Name>


>  <Total Molecular Weight>
351.40

>  <Molecular Weight Parent Molecule>
351.40

>  <Molecular Formula>
C19H21N5O2

>  <Salt Name>


>  <Salt Coefficient>


>  <cLogP>
1.21

>  <SMILES>
O=C(N1CC(C2=CC(NC)=CC(C)=N2)OCC1)C3=NNC4=C3C=CC=C4

$$$$
Compound 209
Actelion Java MolfileCreator 2.0

  0  0  0  0  0  0              0 V3000
M  V30 BEGIN CTAB
M  V30 COUNTS 21 23 0 0 0
M  V30 BEGIN ATOM
M  V30 1 N 5.1961 -1.5 0.0 0
M  V30 2 C 5.1961 -0.5 0.0 0
M  V30 3 C 4.3301 -1.9999 0.0 0
M  V30 4 C 4.3301 0.0 0.0 0
M  V30 5 C 6.0621 0.0 0.0 0
M  V30 6 C 3.4641 -1.5 0.0 0
M  V30 7 C 4.1222 -2.9781 0.0 0
M  V30 8 C 3.4641 -0.5 0.0 0
M  V30 9 N 2.7209 -2.1691 0.0 0
M  V30 10 N 3.1276 -3.0826 0.0 0
M  V30 11 C 4.7913 -3.7212 0.0 0
M  V30 12 N 2.598 0.0 0.0 0
M  V30 13 C 4.4823 -4.6723 0.0 0
M  V30 14 C 5.7694 -3.5133 0.0 0
M  V30 15 C 1.732 -0.5 0.0 0
M  V30 16 C 5.1514 -5.4154 0.0 0
M  V30 17 C 6.4386 -4.2565 0.0 0
M  V30 18 C 0.866 0.0 0.0 0
M  V30 19 C 6.1296 -5.2075 0.0 0
M  V30 20 C 0.866 1.0 0.0 0
M  V30 21 C 0.0 -0.5 0.0 0
M  V30 END ATOM
M  V30 BEGIN BOND
M  V30 1 2 1 2
M  V30 2 1 1 3
M  V30 3 1 2 4
M  V30 4 1 2 5
M  V30 5 1 3 6
M  V30 6 2 3 7
M  V30 7 2 4 8
M  V30 8 2 6 9
M  V30 9 1 7 10
M  V30 10 1 7 11
M  V30 11 1 8 12
M  V30 12 2 11 13
M  V30 13 1 11 14
M  V30 14 1 12 15
M  V30 15 1 13 16
M  V30 16 2 14 17
M  V30 17 1 15 18
M  V30 18 2 16 19
M  V30 19 1 18 20
M  V30 20 1 18 21
M  V30 21 1 6 8
M  V30 22 1 9 10
M  V30 23 1 17 19
M  V30 END BOND
M  V30 END CTAB
M  END
>  <Rack>
PathogenBox_PlateC

>  <Position>
E10

>  <Compound ID>
MMV021375

>  <Disease Set>
MALARIA

>  <Trivial Name>


>  <Total Molecular Weight>
280.37

>  <Molecular Weight Parent Molecule>
280.37

>  <Molecular Formula>
C17H20N4

>  <Salt Name>


>  <Salt Coefficient>


>  <cLogP>
2.87

>  <SMILES>
CC(C)CNc1cc(nc2c([nH]nc12)-c1ccccc1)C

$$$$
Compound 210
Actelion Java MolfileCreator 2.0

  0  0  0  0  0  0              0 V3000
M  V30 BEGIN CTAB
M  V30 COUNTS 27 30 0 0 0
M  V30 BEGIN ATOM
M  V30 1 S 6.8053 -0.6691 0.0 0
M  V30 2 C 6.0621 0.0 0.0 0
M  V30 3 C 6.3985 -1.5826 0.0 0
M  V30 4 N 6.0621 0.9999 0.0 0
M  V30 5 C 5.1961 -0.5 0.0 0
M  V30 6 C 5.404 -1.4781 0.0 0
M  V30 7 C 5.1961 1.4999 0.0 0
M  V30 8 C 4.3301 0.0 0.0 0
M  V30 9 C 4.7349 -2.2212 0.0 0
M  V30 10 N 4.3301 0.9999 0.0 0
M  V30 11 C 5.1961 2.4999 0.0 0
M  V30 12 N 3.4641 -0.5 0.0 0
M  V30 13 C 3.7567 -2.0133 0.0 0
M  V30 14 C 5.0439 -3.1723 0.0 0
M  V30 15 N 6.0621 2.9999 0.0 0
M  V30 16 C 4.3301 3.0 0.0 0
M  V30 17 C 2.598 0.0 0.0 0
M  V30 18 C 3.0876 -2.7565 0.0 0
M  V30 19 C 4.3748 -3.9154 0.0 0
M  V30 20 C 6.0621 3.9999 0.0 0
M  V30 21 C 4.3301 4.0 0.0 0
M  V30 22 C 1.732 -0.5 0.0 0
M  V30 23 C 3.3966 -3.7075 0.0 0
M  V30 24 C 5.1961 4.4999 0.0 0
M  V30 25 O 1.732 -1.5 0.0 0
M  V30 26 N 0.866 0.0 0.0 0
M  V30 27 C 0.0 -0.5 0.0 0
M  V30 END ATOM
M  V30 BEGIN BOND
M  V30 1 1 1 2
M  V30 2 1 1 3
M  V30 3 2 2 4
M  V30 4 1 2 5
M  V30 5 2 3 6
M  V30 6 1 4 7
M  V30 7 2 5 8
M  V30 8 1 6 9
M  V30 9 2 7 10
M  V30 10 1 7 11
M  V30 11 1 8 12
M  V30 12 2 9 13
M  V30 13 1 9 14
M  V30 14 2 11 15
M  V30 15 1 11 16
M  V30 16 1 12 17
M  V30 17 1 13 18
M  V30 18 2 14 19
M  V30 19 1 15 20
M  V30 20 2 16 21
M  V30 21 1 17 22
M  V30 22 2 18 23
M  V30 23 2 20 24
M  V30 24 2 22 25
M  V30 25 1 22 26
M  V30 26 1 26 27
M  V30 27 1 5 6
M  V30 28 1 8 10
M  V30 29 1 19 23
M  V30 30 1 21 24
M  V30 END BOND
M  V30 END CTAB
M  END
>  <Rack>
PathogenBox_PlateC

>  <Position>
E11

>  <Compound ID>
MMV1029203

>  <Disease Set>
MALARIA

>  <Trivial Name>


>  <Total Molecular Weight>
375.45

>  <Molecular Weight Parent Molecule>
375.45

>  <Molecular Formula>
C20H17N5OS

>  <Salt Name>


>  <Salt Coefficient>


>  <cLogP>
2.61

>  <SMILES>
CNC(=O)CNc1nc(nc2scc(c3ccccc3)c12)c4ccccn4

$$$$
Compound 211
Actelion Java MolfileCreator 2.0

  0  0  0  0  0  0              0 V3000
M  V30 BEGIN CTAB
M  V30 COUNTS 25 27 0 0 0
M  V30 BEGIN ATOM
M  V30 1 Cl 6.0621 -1.9999 0.0 0
M  V30 2 C 5.1961 -1.4999 0.0 0
M  V30 3 C 5.1961 -0.5 0.0 0
M  V30 4 C 4.3301 -1.9999 0.0 0
M  V30 5 O 6.0621 0.0 0.0 0
M  V30 6 C 4.3301 0.0 0.0 0
M  V30 7 C 3.4641 -1.5 0.0 0
M  V30 8 C 6.0621 0.9999 0.0 0
M  V30 9 C 3.4641 -0.5 0.0 0
M  V30 10 N 2.598 0.0 0.0 0
M  V30 11 C 1.732 -0.5 0.0 0
M  V30 12 O 1.732 -1.5 0.0 0
M  V30 13 C 0.866 0.0 0.0 0
M  V30 14 C 0.0 -0.5 0.0 0
M  V30 15 N -0.866 0.0 0.0 0
M  V30 16 C 0.0 -1.4999 0.0 0
M  V30 17 N -1.732 -0.4999 0.0 0
M  V30 18 C -0.866 -1.9999 0.0 0
M  V30 19 C 0.866 -1.9999 0.0 0
M  V30 20 C -1.732 -1.4999 0.0 0
M  V30 21 C -2.598 0.0 0.0 0
M  V30 22 C -0.866 -2.9999 0.0 0
M  V30 23 C 0.866 -3.0 0.0 0
M  V30 24 O -2.598 -1.9999 0.0 0
M  V30 25 C 0.0 -3.4999 0.0 0
M  V30 END ATOM
M  V30 BEGIN BOND
M  V30 1 1 1 2
M  V30 2 2 2 3
M  V30 3 1 2 4
M  V30 4 1 3 5
M  V30 5 1 3 6
M  V30 6 2 4 7
M  V30 7 1 5 8
M  V30 8 2 6 9
M  V30 9 1 9 10
M  V30 10 1 10 11
M  V30 11 2 11 12
M  V30 12 1 11 13
M  V30 13 1 13 14
M  V30 14 2 14 15
M  V30 15 1 14 16
M  V30 16 1 15 17
M  V30 17 2 16 18
M  V30 18 1 16 19
M  V30 19 1 17 20
M  V30 20 1 17 21
M  V30 21 1 18 22
M  V30 22 2 19 23
M  V30 23 2 20 24
M  V30 24 2 22 25
M  V30 25 1 7 9
M  V30 26 1 18 20
M  V30 27 1 23 25
M  V30 END BOND
M  V30 END CTAB
M  END
>  <Rack>
PathogenBox_PlateC

>  <Position>
F02

>  <Compound ID>
MMV676053

>  <Disease Set>
CRYPTOSPORIDIOSIS

>  <Trivial Name>


>  <Total Molecular Weight>
357.79

>  <Molecular Weight Parent Molecule>
357.79

>  <Molecular Formula>
C18H16N3O3Cl

>  <Salt Name>


>  <Salt Coefficient>


>  <cLogP>
2.86

>  <SMILES>
COc1cc(NC(=O)CC2=NN(C)C(=O)c3ccccc23)ccc1Cl

$$$$
Compound 212
Actelion Java MolfileCreator 2.0

  0  0  0  0  0  0              0 V3000
M  V30 BEGIN CTAB
M  V30 COUNTS 27 29 0 0 0
M  V30 BEGIN ATOM
M  V30 1 Cl 5.1961 -0.5 0.0 0
M  V30 2 C 4.3301 0.0 0.0 0
M  V30 3 C 4.3301 1.0 0.0 0
M  V30 4 C 3.4641 -0.4999 0.0 0
M  V30 5 C 5.1961 1.5 0.0 0
M  V30 6 C 3.4641 1.5 0.0 0
M  V30 7 C 2.598 0.0 0.0 0
M  V30 8 O 6.1096 1.0932 0.0 0
M  V30 9 C 5.3006 2.4945 0.0 0
M  V30 10 C 2.598 1.0 0.0 0
M  V30 11 N 1.732 -0.5 0.0 0
M  V30 12 C 6.7788 1.8364 0.0 0
M  V30 13 C 6.2788 2.7024 0.0 0
M  V30 14 C 0.866 0.0 0.0 0
M  V30 15 C 7.7733 1.7318 0.0 0
M  V30 16 N 0.866 1.0 0.0 0
M  V30 17 N 0.0 -0.5 0.0 0
M  V30 18 C 8.18 0.8183 0.0 0
M  V30 19 C 8.3611 2.5408 0.0 0
M  V30 20 Cl 7.5923 0.0093 0.0 0
M  V30 21 C 9.1746 0.7138 0.0 0
M  V30 22 C 9.3556 2.4363 0.0 0
M  V30 23 C 9.7623 1.5228 0.0 0
M  V30 24 N 10.7569 1.4182 0.0 0
M  V30 25 C 11.1636 0.5047 0.0 0
M  V30 26 N 10.5758 -0.3042 0.0 0
M  V30 27 N 12.1581 0.4002 0.0 0
M  V30 END ATOM
M  V30 BEGIN BOND
M  V30 1 1 1 2
M  V30 2 2 2 3
M  V30 3 1 2 4
M  V30 4 1 3 5
M  V30 5 1 3 6
M  V30 6 2 4 7
M  V30 7 1 5 8
M  V30 8 2 5 9
M  V30 9 2 6 10
M  V30 10 1 7 11
M  V30 11 1 8 12
M  V30 12 1 9 13
M  V30 13 1 11 14
M  V30 14 1 12 15
M  V30 15 2 14 16
M  V30 16 1 14 17
M  V30 17 2 15 18
M  V30 18 1 15 19
M  V30 19 1 18 20
M  V30 20 1 18 21
M  V30 21 2 19 22
M  V30 22 2 21 23
M  V30 23 1 23 24
M  V30 24 1 24 25
M  V30 25 2 25 26
M  V30 26 1 25 27
M  V30 27 1 7 10
M  V30 28 2 12 13
M  V30 29 1 22 23
M  V30 END BOND
M  V30 END CTAB
M  END
>  <Rack>
PathogenBox_PlateC

>  <Position>
F03

>  <Compound ID>
MMV688179

>  <Disease Set>
KINETOPLASTIDS

>  <Trivial Name>


>  <Total Molecular Weight>
476.19

>  <Molecular Weight Parent Molecule>
403.27

>  <Molecular Formula>
C18H16N6OCl2

>  <Salt Name>
Hydrochloride

>  <Salt Coefficient>
2

>  <cLogP>
2.87

>  <SMILES>
NC(=N)Nc1ccc(c(Cl)c1)c2oc(cc2)c3ccc(NC(=N)N)cc3Cl

$$$$
Compound 213
Actelion Java MolfileCreator 2.0

  0  0  0  0  0  0              0 V3000
M  V30 BEGIN CTAB
M  V30 COUNTS 30 34 0 0 0
M  V30 BEGIN ATOM
M  V30 1 S 3.5116 -0.4067 0.0 0
M  V30 2 C 4.1807 0.3364 0.0 0
M  V30 3 C 2.598 0.0 0.0 0
M  V30 4 C 5.1752 0.2318 0.0 0
M  V30 5 C 3.6807 1.2024 0.0 0
M  V30 6 C 2.7026 0.9945 0.0 0
M  V30 7 C 1.732 -0.5 0.0 0
M  V30 8 C 5.582 -0.6816 0.0 0
M  V30 9 C 5.763 1.0408 0.0 0
M  V30 10 N 0.866 0.0 0.0 0
M  V30 11 O 4.9942 -1.4906 0.0 0
M  V30 12 C 6.5765 -0.7861 0.0 0
M  V30 13 C 6.7575 0.9363 0.0 0
M  V30 14 C 0.0 -0.5 0.0 0
M  V30 15 C 5.4009 -2.4042 0.0 0
M  V30 16 C 7.1643 0.0228 0.0 0
M  V30 17 C 7.3453 1.7453 0.0 0
M  V30 18 C -0.866 0.0 0.0 0
M  V30 19 C 0.0 -1.4999 0.0 0
M  V30 20 C 4.8131 -3.2132 0.0 0
M  V30 21 C 6.3954 -2.5087 0.0 0
M  V30 22 C 8.1588 -0.0817 0.0 0
M  V30 23 C 8.3398 1.6408 0.0 0
M  V30 24 N -1.732 -0.4999 0.0 0
M  V30 25 C -0.866 -1.9999 0.0 0
M  V30 26 C 5.2199 -4.1267 0.0 0
M  V30 27 C 6.8022 -3.4223 0.0 0
M  V30 28 N 8.7466 0.7273 0.0 0
M  V30 29 C -1.732 -1.4999 0.0 0
M  V30 30 N 6.2144 -4.2313 0.0 0
M  V30 END ATOM
M  V30 BEGIN BOND
M  V30 1 1 1 2
M  V30 2 1 1 3
M  V30 3 1 2 4
M  V30 4 2 2 5
M  V30 5 2 3 6
M  V30 6 1 3 7
M  V30 7 1 4 8
M  V30 8 2 4 9
M  V30 9 1 7 10
M  V30 10 1 8 11
M  V30 11 2 8 12
M  V30 12 1 9 13
M  V30 13 1 10 14
M  V30 14 1 11 15
M  V30 15 1 12 16
M  V30 16 2 13 17
M  V30 17 2 14 18
M  V30 18 1 14 19
M  V30 19 1 15 20
M  V30 20 1 15 21
M  V30 21 2 16 22
M  V30 22 1 17 23
M  V30 23 1 18 24
M  V30 24 2 19 25
M  V30 25 1 20 26
M  V30 26 1 21 27
M  V30 27 1 22 28
M  V30 28 2 24 29
M  V30 29 1 26 30
M  V30 30 1 5 6
M  V30 31 1 13 16
M  V30 32 2 23 28
M  V30 33 1 25 29
M  V30 34 1 27 30
M  V30 END BOND
M  V30 END CTAB
M  END
>  <Rack>
PathogenBox_PlateC

>  <Position>
F04

>  <Compound ID>
MMV023969 

>  <Disease Set>
TUBERCULOSIS

>  <Trivial Name>


>  <Total Molecular Weight>
453.01

>  <Molecular Weight Parent Molecule>
416.55

>  <Molecular Formula>
C24H24N4OS

>  <Salt Name>
Hydrochloride

>  <Salt Coefficient>
1

>  <cLogP>
3.86

>  <SMILES>
C(Nc1cccnc1)c2ccc(s2)c3cc4ccncc4cc3OC5CCNCC5

$$$$
Compound 214
Actelion Java MolfileCreator 2.0

  0  0  0  0  0  0              0 V3000
M  V30 BEGIN CTAB
M  V30 COUNTS 24 26 0 0 0
M  V30 BEGIN ATOM
M  V30 1 S 8.0108 2.7024 0.0 0
M  V30 2 C 7.0327 2.4945 0.0 0
M  V30 3 C 8.5108 1.8364 0.0 0
M  V30 4 C 6.9282 1.4999 0.0 0
M  V30 5 C 7.8417 1.0932 0.0 0
M  V30 6 C 6.0621 0.9999 0.0 0
M  V30 7 C 5.1961 1.4999 0.0 0
M  V30 8 C 6.0621 0.0 0.0 0
M  V30 9 C 4.3301 1.0 0.0 0
M  V30 10 C 5.1961 -0.5 0.0 0
M  V30 11 C 4.3301 0.0 0.0 0
M  V30 12 C 3.4641 1.4999 0.0 0
M  V30 13 O 3.4641 -0.5 0.0 0
M  V30 14 O 3.4641 2.5 0.0 0
M  V30 15 N 2.598 1.0 0.0 0
M  V30 16 C 2.598 0.0 0.0 0
M  V30 17 C 1.732 -0.5 0.0 0
M  V30 18 O 0.866 0.0 0.0 0
M  V30 19 C 0.0 -0.5 0.0 0
M  V30 20 C -0.866 0.0 0.0 0
M  V30 21 C 0.0 -1.4999 0.0 0
M  V30 22 C -1.732 -0.4999 0.0 0
M  V30 23 C -0.866 -1.9999 0.0 0
M  V30 24 C -1.732 -1.4999 0.0 0
M  V30 END ATOM
M  V30 BEGIN BOND
M  V30 1 1 1 2
M  V30 2 1 1 3
M  V30 3 2 2 4
M  V30 4 2 3 5
M  V30 5 1 4 6
M  V30 6 2 6 7
M  V30 7 1 6 8
M  V30 8 1 7 9
M  V30 9 2 8 10
M  V30 10 2 9 11
M  V30 11 1 9 12
M  V30 12 1 11 13
M  V30 13 2 12 14
M  V30 14 1 12 15
M  V30 15 1 13 16
M  V30 16 1 16 17
M  V30 17 1 17 18
M  V30 18 1 18 19
M  V30 19 2 19 20
M  V30 20 1 19 21
M  V30 21 1 20 22
M  V30 22 2 21 23
M  V30 23 2 22 24
M  V30 24 1 4 5
M  V30 25 1 10 11
M  V30 26 1 23 24
M  V30 END BOND
M  V30 END CTAB
M  END
>  <Rack>
PathogenBox_PlateC

>  <Position>
F05

>  <Compound ID>
MMV687138

>  <Disease Set>
TUBERCULOSIS

>  <Trivial Name>


>  <Total Molecular Weight>
339.41

>  <Molecular Weight Parent Molecule>
339.41

>  <Molecular Formula>
C19H17NO3S

>  <Salt Name>


>  <Salt Coefficient>


>  <cLogP>
3.55

>  <SMILES>
NC(=O)c1cc(ccc1OCCOc2ccccc2)c3ccsc3

$$$$
Compound 215
Actelion Java MolfileCreator 2.0

  0  0  0  0  0  0              0 V3000
M  V30 BEGIN CTAB
M  V30 COUNTS 38 42 0 0 0
M  V30 BEGIN ATOM
M  V30 1 F 18.3874 0.0 0.0 0
M  V30 2 C 16.8874 0.0 0.0 0
M  V30 3 F 16.8874 -1.5 0.0 0
M  V30 4 F 15.3874 0.0 0.0 0
M  V30 5 O 16.8874 1.5 0.0 0
M  V30 6 C 15.5884 2.2499 0.0 0
M  V30 7 C 15.5884 3.7499 0.0 0
M  V30 8 C 14.2894 1.5 0.0 0
M  V30 9 C 14.2894 4.4999 0.0 0
M  V30 10 C 12.9903 2.25 0.0 0
M  V30 11 C 12.9903 3.7499 0.0 0
M  V30 12 O 11.6913 4.4999 0.0 0
M  V30 13 C 10.3923 3.75 0.0 0
M  V30 14 C 9.0932 4.5 0.0 0
M  V30 15 C 10.3923 2.2499 0.0 0
M  V30 16 C 7.7942 3.75 0.0 0
M  V30 17 C 9.0932 1.5 0.0 0
M  V30 18 N 7.7942 2.25 0.0 0
M  V30 19 C 6.4951 1.5 0.0 0
M  V30 20 C 5.1961 2.25 0.0 0
M  V30 21 C 6.4951 0.0 0.0 0
M  V30 22 C 3.8971 1.5 0.0 0
M  V30 23 C 5.1961 -0.7499 0.0 0
M  V30 24 C 3.8971 0.0 0.0 0
M  V30 25 O 2.598 -0.75 0.0 0
M  V30 26 C 1.299 0.0 0.0 0
M  V30 27 C 0.0 -0.75 0.0 0 CFG=2
M  V30 28 O -1.3703 -0.1398 0.0 0
M  V30 29 C -0.1567 -2.2417 0.0 0
M  V30 30 C 1.258 -1.5669 0.0 0
M  V30 31 C -2.374 -1.2546 0.0 0
M  V30 32 N -1.624 -2.5536 0.0 0
M  V30 33 N -3.8412 -1.5664 0.0 0
M  V30 34 C -2.6277 -3.6683 0.0 0
M  V30 35 C -3.998 -3.0582 0.0 0
M  V30 36 N -5.297 -3.8082 0.0 0 CHG=1
M  V30 37 O -6.5961 -3.0582 0.0 0
M  V30 38 O -5.297 -5.3082 0.0 0 CHG=-1
M  V30 END ATOM
M  V30 BEGIN BOND
M  V30 1 1 1 2
M  V30 2 1 2 3
M  V30 3 1 2 4
M  V30 4 1 2 5
M  V30 5 1 5 6
M  V30 6 2 6 7
M  V30 7 1 6 8
M  V30 8 1 7 9
M  V30 9 2 8 10
M  V30 10 2 9 11
M  V30 11 1 11 12
M  V30 12 1 12 13
M  V30 13 1 13 14
M  V30 14 1 13 15
M  V30 15 1 14 16
M  V30 16 1 15 17
M  V30 17 1 16 18
M  V30 18 1 18 19
M  V30 19 2 19 20
M  V30 20 1 19 21
M  V30 21 1 20 22
M  V30 22 2 21 23
M  V30 23 2 22 24
M  V30 24 1 24 25
M  V30 25 1 25 26
M  V30 26 1 27 26
M  V30 27 1 27 28
M  V30 28 1 27 29
M  V30 29 1 27 30 CFG=3
M  V30 30 1 28 31
M  V30 31 1 29 32
M  V30 32 2 31 33
M  V30 33 1 32 34
M  V30 34 1 33 35
M  V30 35 1 35 36
M  V30 36 2 36 37
M  V30 37 1 36 38
M  V30 38 1 10 11
M  V30 39 1 17 18
M  V30 40 1 23 24
M  V30 41 1 31 32
M  V30 42 2 34 35
M  V30 END BOND
M  V30 BEGIN COLLECTION
M  V30 MDLV30/STERAC1 ATOMS=(1 27)
M  V30 END COLLECTION
M  V30 END CTAB
M  END
>  <Rack>
PathogenBox_PlateC

>  <Position>
F06

>  <Compound ID>
MMV688262

>  <Disease Set>
TUBERCULOSIS

>  <Trivial Name>
Delamanid

>  <Total Molecular Weight>
534.48

>  <Molecular Weight Parent Molecule>
534.48

>  <Molecular Formula>
C25H25N4O6F3

>  <Salt Name>


>  <Salt Coefficient>


>  <cLogP>
5.04

>  <SMILES>
CC1(COc2ccc(cc2)N3CCC(CC3)Oc4ccc(OC(F)(F)F)cc4)Cn5cc(nc5O1)N(=O)=O

$$$$
Compound 216
Actelion Java MolfileCreator 2.0

  0  0  0  0  0  0              0 V3000
M  V30 BEGIN CTAB
M  V30 COUNTS 25 27 0 0 0
M  V30 BEGIN ATOM
M  V30 1 O 2.598 1.0 0.0 0
M  V30 2 C 2.598 0.0 0.0 0
M  V30 3 N 3.4641 -0.5 0.0 0
M  V30 4 C 1.732 -0.5 0.0 0
M  V30 5 C 4.3301 0.0 0.0 0
M  V30 6 O 0.866 0.0 0.0 0
M  V30 7 C 5.1961 -0.5 0.0 0
M  V30 8 C 0.0 -0.5 0.0 0
M  V30 9 C 5.1961 -1.5 0.0 0
M  V30 10 C 6.0621 0.0 0.0 0
M  V30 11 C -0.866 0.0 0.0 0
M  V30 12 C 0.0 -1.4999 0.0 0
M  V30 13 C 6.0621 -2.0 0.0 0
M  V30 14 C 6.9282 -0.5 0.0 0
M  V30 15 C -1.732 -0.4999 0.0 0
M  V30 16 C -0.866 1.0 0.0 0
M  V30 17 C -0.866 -1.9999 0.0 0
M  V30 18 C 6.9282 -1.5 0.0 0
M  V30 19 N -1.732 -1.4999 0.0 0
M  V30 20 C -2.598 0.0 0.0 0
M  V30 21 C -1.732 1.5 0.0 0
M  V30 22 C -0.866 -2.9999 0.0 0
M  V30 23 C -2.598 1.0 0.0 0
M  V30 24 O -1.732 2.5 0.0 0
M  V30 25 C -2.598 3.0 0.0 0
M  V30 END ATOM
M  V30 BEGIN BOND
M  V30 1 2 1 2
M  V30 2 1 2 3
M  V30 3 1 2 4
M  V30 4 1 3 5
M  V30 5 1 4 6
M  V30 6 1 5 7
M  V30 7 1 6 8
M  V30 8 2 7 9
M  V30 9 1 7 10
M  V30 10 1 8 11
M  V30 11 2 8 12
M  V30 12 1 9 13
M  V30 13 2 10 14
M  V30 14 1 11 15
M  V30 15 2 11 16
M  V30 16 1 12 17
M  V30 17 2 13 18
M  V30 18 1 15 19
M  V30 19 2 15 20
M  V30 20 1 16 21
M  V30 21 1 17 22
M  V30 22 1 20 23
M  V30 23 1 21 24
M  V30 24 1 24 25
M  V30 25 1 14 18
M  V30 26 2 17 19
M  V30 27 2 21 23
M  V30 END BOND
M  V30 END CTAB
M  END
>  <Rack>
PathogenBox_PlateC

>  <Position>
F07

>  <Compound ID>
MMV687189

>  <Disease Set>
TUBERCULOSIS

>  <Trivial Name>


>  <Total Molecular Weight>
336.38

>  <Molecular Weight Parent Molecule>
336.38

>  <Molecular Formula>
C20H20N2O3

>  <Salt Name>


>  <Salt Coefficient>


>  <cLogP>
2.74

>  <SMILES>
COc1ccc2nc(C)cc(OCC(=O)NCc3ccccc3)c2c1

$$$$
Compound 217
Actelion Java MolfileCreator 2.0

  0  0  0  0  0  0              0 V3000
M  V30 BEGIN CTAB
M  V30 COUNTS 25 26 0 0 0
M  V30 BEGIN ATOM
M  V30 1 Cl 5.2259 3.7715 0.0 0
M  V30 2 C 5.2259 2.2629 0.0 0
M  V30 3 C 3.9194 1.5086 0.0 0
M  V30 4 C 6.5324 1.5086 0.0 0
M  V30 5 C 3.9194 0.0 0.0 0
M  V30 6 C 6.5324 0.0 0.0 0
M  V30 7 C 5.2259 -0.7543 0.0 0
M  V30 8 C 2.6129 -0.7543 0.0 0
M  V30 9 O 5.2259 -2.2629 0.0 0
M  V30 10 O 2.6129 -2.2629 0.0 0
M  V30 11 N 1.3064 0.0 0.0 0
M  V30 12 C 0.0 -0.7543 0.0 0
M  V30 13 C -1.3064 0.0 0.0 0
M  V30 14 C 0.0 -2.2629 0.0 0
M  V30 15 C -2.6129 -0.7543 0.0 0
M  V30 16 C -1.3064 -3.0172 0.0 0
M  V30 17 C -2.6129 -2.2629 0.0 0
M  V30 18 C -3.9194 0.0 0.0 0
M  V30 19 C -3.9194 -3.0172 0.0 0
M  V30 20 F -4.6737 -1.2189 0.0 0
M  V30 21 F -5.2259 0.7543 0.0 0
M  V30 22 F -3.1651 1.3064 0.0 0
M  V30 23 F -3.1651 -4.3237 0.0 0
M  V30 24 F -5.2259 -3.7715 0.0 0
M  V30 25 F -4.6737 -1.8857 0.0 0
M  V30 END ATOM
M  V30 BEGIN BOND
M  V30 1 1 1 2
M  V30 2 2 2 3
M  V30 3 1 2 4
M  V30 4 1 3 5
M  V30 5 2 4 6
M  V30 6 2 5 7
M  V30 7 1 5 8
M  V30 8 1 7 9
M  V30 9 2 8 10
M  V30 10 1 8 11
M  V30 11 1 11 12
M  V30 12 2 12 13
M  V30 13 1 12 14
M  V30 14 1 13 15
M  V30 15 2 14 16
M  V30 16 2 15 17
M  V30 17 1 15 18
M  V30 18 1 17 19
M  V30 19 1 18 20
M  V30 20 1 18 21
M  V30 21 1 18 22
M  V30 22 1 19 23
M  V30 23 1 19 24
M  V30 24 1 19 25
M  V30 25 1 6 7
M  V30 26 1 16 17
M  V30 END BOND
M  V30 END CTAB
M  END
>  <Rack>
PathogenBox_PlateC

>  <Position>
F08

>  <Compound ID>
MMV687807

>  <Disease Set>
TUBERCULOSIS

>  <Trivial Name>


>  <Total Molecular Weight>
383.67

>  <Molecular Weight Parent Molecule>
383.67

>  <Molecular Formula>
C15H8NO2ClF6

>  <Salt Name>


>  <Salt Coefficient>


>  <cLogP>
4.76

>  <SMILES>
Oc1ccc(Cl)cc1C(=O)Nc2ccc(c(c2)C(F)(F)F)C(F)(F)F

$$$$
Compound 218
Actelion Java MolfileCreator 2.0

  0  0  0  0  0  0              0 V3000
M  V30 BEGIN CTAB
M  V30 COUNTS 31 35 0 0 0
M  V30 BEGIN ATOM
M  V30 1 S 5.2436 -1.5932 0.0 0
M  V30 2 C 4.3301 -1.9999 0.0 0
M  V30 3 C 5.9128 -2.3364 0.0 0
M  V30 4 N 4.4346 -2.9945 0.0 0
M  V30 5 N 3.4641 -1.4999 0.0 0
M  V30 6 N 5.4128 -3.2024 0.0 0
M  V30 7 N 6.9073 -2.2318 0.0 0
M  V30 8 C 3.4641 -0.5 0.0 0
M  V30 9 C 2.598 -1.9999 0.0 0
M  V30 10 C 7.5764 -2.975 0.0 0
M  V30 11 C 7.4073 -1.3658 0.0 0
M  V30 12 C 2.598 0.0 0.0 0
M  V30 13 C 1.732 -1.5 0.0 0
M  V30 14 C 8.49 -2.5682 0.0 0
M  V30 15 C 8.3854 -1.5737 0.0 0
M  V30 16 C 1.732 -0.5 0.0 0
M  V30 17 C 0.866 0.0 0.0 0
M  V30 18 O 0.866 1.0 0.0 0
M  V30 19 N 0.0 -0.5 0.0 0
M  V30 20 C -0.866 0.0 0.0 0
M  V30 21 C 0.0 -1.4999 0.0 0
M  V30 22 C -1.732 -0.4999 0.0 0
M  V30 23 C -0.866 -1.9999 0.0 0
M  V30 24 C -1.732 -1.4999 0.0 0
M  V30 25 C -2.598 -1.9999 0.0 0
M  V30 26 C -2.598 -2.9999 0.0 0
M  V30 27 C -3.4641 -3.4999 0.0 0
M  V30 28 C -1.732 -3.4999 0.0 0
M  V30 29 C -3.4641 -4.4999 0.0 0
M  V30 30 C -1.732 -4.4999 0.0 0
M  V30 31 C -2.598 -4.9999 0.0 0
M  V30 END ATOM
M  V30 BEGIN BOND
M  V30 1 1 1 2
M  V30 2 1 1 3
M  V30 3 2 2 4
M  V30 4 1 2 5
M  V30 5 2 3 6
M  V30 6 1 3 7
M  V30 7 1 5 8
M  V30 8 1 5 9
M  V30 9 1 7 10
M  V30 10 1 7 11
M  V30 11 1 8 12
M  V30 12 1 9 13
M  V30 13 2 10 14
M  V30 14 2 11 15
M  V30 15 1 12 16
M  V30 16 1 16 17
M  V30 17 2 17 18
M  V30 18 1 17 19
M  V30 19 1 19 20
M  V30 20 1 19 21
M  V30 21 1 20 22
M  V30 22 1 21 23
M  V30 23 1 22 24
M  V30 24 1 24 25
M  V30 25 1 25 26
M  V30 26 2 26 27
M  V30 27 1 26 28
M  V30 28 1 27 29
M  V30 29 2 28 30
M  V30 30 2 29 31
M  V30 31 1 4 6
M  V30 32 1 13 16
M  V30 33 1 14 15
M  V30 34 1 23 24
M  V30 35 1 30 31
M  V30 END BOND
M  V30 END CTAB
M  END
>  <Rack>
PathogenBox_PlateC

>  <Position>
F09

>  <Compound ID>
MMV676478

>  <Disease Set>
TUBERCULOSIS

>  <Trivial Name>


>  <Total Molecular Weight>
435.58

>  <Molecular Weight Parent Molecule>
435.58

>  <Molecular Formula>
C24H29N5OS

>  <Salt Name>


>  <Salt Coefficient>


>  <cLogP>
4.42

>  <SMILES>
O=C(C1CCN(CC1)c2nnc(s2)n3cccc3)N4CCC(Cc5ccccc5)CC4

$$$$
Compound 219
Actelion Java MolfileCreator 2.0

  0  0  0  0  0  0              0 V3000
M  V30 BEGIN CTAB
M  V30 COUNTS 21 23 0 0 0
M  V30 BEGIN ATOM
M  V30 1 N 1.952 -4.7127 0.0 0
M  V30 2 C 1.6401 -3.2454 0.0 0
M  V30 3 C 0.8373 -5.7163 0.0 0
M  V30 4 N 0.2135 -2.7819 0.0 0
M  V30 5 N 2.7548 -2.2417 0.0 0
M  V30 6 C -0.5892 -5.2528 0.0 0
M  V30 7 C 1.1491 -7.1836 0.0 0
M  V30 8 C -0.9011 -3.7856 0.0 0
M  V30 9 N 4.222 -2.5536 0.0 0
M  V30 10 C 2.598 -0.75 0.0 0
M  V30 11 C -2.3277 -3.3221 0.0 0
M  V30 12 C 4.972 -1.2546 0.0 0
M  V30 13 N 1.299 0.0 0.0 0
M  V30 14 C 3.9683 -0.1398 0.0 0
M  V30 15 C 6.4638 -1.0978 0.0 0
M  V30 16 C 1.299 1.4999 0.0 0
M  V30 17 C 0.0 2.2499 0.0 0
M  V30 18 C 2.598 2.25 0.0 0
M  V30 19 C 0.0 3.7499 0.0 0
M  V30 20 C 2.598 3.75 0.0 0
M  V30 21 C 1.299 4.5 0.0 0
M  V30 END ATOM
M  V30 BEGIN BOND
M  V30 1 2 1 2
M  V30 2 1 1 3
M  V30 3 1 2 4
M  V30 4 1 2 5
M  V30 5 2 3 6
M  V30 6 1 3 7
M  V30 7 2 4 8
M  V30 8 1 5 9
M  V30 9 1 5 10
M  V30 10 1 8 11
M  V30 11 2 9 12
M  V30 12 1 10 13
M  V30 13 2 10 14
M  V30 14 1 12 15
M  V30 15 1 13 16
M  V30 16 2 16 17
M  V30 17 1 16 18
M  V30 18 1 17 19
M  V30 19 2 18 20
M  V30 20 2 19 21
M  V30 21 1 6 8
M  V30 22 1 12 14
M  V30 23 1 20 21
M  V30 END BOND
M  V30 END CTAB
M  END
>  <Rack>
PathogenBox_PlateC

>  <Position>
F10

>  <Compound ID>
MMV062221

>  <Disease Set>
MALARIA

>  <Trivial Name>


>  <Total Molecular Weight>
279.35

>  <Molecular Weight Parent Molecule>
279.35

>  <Molecular Formula>
C16H17N5

>  <Salt Name>


>  <Salt Coefficient>


>  <cLogP>
2.98

>  <SMILES>
Cc1cc(C)nc(n1)n2nc(C)cc2Nc3ccccc3

$$$$
Compound 220
Actelion Java MolfileCreator 2.0

  0  0  0  0  0  0              0 V3000
M  V30 BEGIN CTAB
M  V30 COUNTS 32 37 0 0 0
M  V30 BEGIN ATOM
M  V30 1 Cl 11.1081 -4.8575 0.0 0
M  V30 2 C 9.8946 -3.9758 0.0 0
M  V30 3 C 10.0514 -2.4841 0.0 0
M  V30 4 C 8.5243 -4.5859 0.0 0
M  V30 5 C 8.8378 -1.6024 0.0 0
M  V30 6 C 7.3107 -3.7043 0.0 0
M  V30 7 C 8.681 -0.1106 0.0 0
M  V30 8 C 7.4675 -2.2125 0.0 0
M  V30 9 C 9.6847 1.004 0.0 0
M  V30 10 C 7.2138 0.2012 0.0 0
M  V30 11 N 6.4638 -1.0978 0.0 0
M  V30 12 N 9.2212 2.4306 0.0 0
M  V30 13 C 11.152 0.6922 0.0 0
M  V30 14 N 6.7503 1.6278 0.0 0
M  V30 15 C 4.972 -1.2546 0.0 0 CFG=2
M  V30 16 C 7.754 2.7425 0.0 0
M  V30 17 O 11.7621 -0.6781 0.0 0
M  V30 18 C 12.2667 1.6958 0.0 0
M  V30 19 O 3.9683 -0.1398 0.0 0
M  V30 20 C 4.222 -2.5536 0.0 0
M  V30 21 C 13.2538 -0.5213 0.0 0
M  V30 22 C 13.5657 0.9458 0.0 0
M  V30 23 C 2.598 -0.75 0.0 0 CFG=1
M  V30 24 O 4.8321 -3.9239 0.0 0
M  V30 25 C 2.7548 -2.2417 0.0 0 CFG=2
M  V30 26 C 14.3686 -1.525 0.0 0
M  V30 27 C 14.9923 1.4094 0.0 0
M  V30 28 C 1.299 0.0 0.0 0
M  V30 29 O 1.6401 -3.2454 0.0 0
M  V30 30 C 15.7952 -1.0614 0.0 0
M  V30 31 C 16.107 0.4057 0.0 0
M  V30 32 O 0.0 -0.75 0.0 0
M  V30 END ATOM
M  V30 BEGIN BOND
M  V30 1 1 1 2
M  V30 2 2 2 3
M  V30 3 1 2 4
M  V30 4 1 3 5
M  V30 5 2 4 6
M  V30 6 1 5 7
M  V30 7 2 5 8
M  V30 8 2 7 9
M  V30 9 1 7 10
M  V30 10 1 8 11
M  V30 11 1 9 12
M  V30 12 1 9 13
M  V30 13 2 10 14
M  V30 14 1 15 11 CFG=1
M  V30 15 2 12 16
M  V30 16 1 13 17
M  V30 17 2 13 18
M  V30 18 1 15 19
M  V30 19 1 15 20
M  V30 20 1 17 21
M  V30 21 1 18 22
M  V30 22 1 23 19
M  V30 23 1 20 24
M  V30 24 1 25 20
M  V30 25 1 21 26
M  V30 26 1 22 27
M  V30 27 1 23 28 CFG=1
M  V30 28 1 25 29 CFG=1
M  V30 29 2 26 30
M  V30 30 2 27 31
M  V30 31 1 28 32
M  V30 32 1 6 8
M  V30 33 1 10 11
M  V30 34 1 14 16
M  V30 35 2 21 22
M  V30 36 1 23 25
M  V30 37 1 30 31
M  V30 END BOND
M  V30 BEGIN COLLECTION
M  V30 MDLV30/STEABS ATOMS=(3 15 23 25)
M  V30 END COLLECTION
M  V30 END CTAB
M  END
>  <Rack>
PathogenBox_PlateC

>  <Position>
F11

>  <Compound ID>
MMV688921

>  <Disease Set>
DENGUE

>  <Trivial Name>


>  <Total Molecular Weight>
451.86

>  <Molecular Weight Parent Molecule>
451.86

>  <Molecular Formula>
C23H18N3O5Cl

>  <Salt Name>


>  <Salt Coefficient>


>  <cLogP>
3.24

>  <SMILES>
OC[C@H]1O[C@H](C(O)[C@H]1O)n2c3ccc(Cl)cc3c4c(ncnc24)c5oc6ccccc6c5

$$$$
Compound 221
Actelion Java MolfileCreator 2.0

  0  0  0  0  0  0              0 V3000
M  V30 BEGIN CTAB
M  V30 COUNTS 18 19 0 0 0
M  V30 BEGIN ATOM
M  V30 1 O 5.1961 -0.75 0.0 0
M  V30 2 C 3.8971 0.0 0.0 0
M  V30 3 O 3.8971 1.5 0.0 0
M  V30 4 C 2.598 -0.75 0.0 0 CFG=1
M  V30 5 O 2.598 -2.25 0.0 0
M  V30 6 C 1.299 0.0 0.0 0
M  V30 7 C 3.8971 -3.0 0.0 0
M  V30 8 C 1.299 1.5 0.0 0
M  V30 9 C 0.0 -0.75 0.0 0
M  V30 10 C 3.8971 -4.5 0.0 0
M  V30 11 C 5.1961 -2.25 0.0 0
M  V30 12 C 5.1961 -5.25 0.0 0
M  V30 13 C 2.598 -5.25 0.0 0
M  V30 14 C 6.4951 -3.0 0.0 0
M  V30 15 C 6.4951 -4.5 0.0 0
M  V30 16 C 5.1961 -6.75 0.0 0
M  V30 17 C 2.598 -6.75 0.0 0
M  V30 18 C 3.8971 -7.5 0.0 0
M  V30 END ATOM
M  V30 BEGIN BOND
M  V30 1 2 1 2
M  V30 2 1 2 3
M  V30 3 1 4 2
M  V30 4 1 4 5 CFG=1
M  V30 5 1 4 6
M  V30 6 1 5 7
M  V30 7 1 6 8
M  V30 8 1 6 9
M  V30 9 1 7 10
M  V30 10 2 7 11
M  V30 11 1 10 12
M  V30 12 2 10 13
M  V30 13 1 11 14
M  V30 14 1 12 15
M  V30 15 2 12 16
M  V30 16 1 13 17
M  V30 17 1 16 18
M  V30 18 2 14 15
M  V30 19 2 17 18
M  V30 END BOND
M  V30 BEGIN COLLECTION
M  V30 MDLV30/STERAC1 ATOMS=(1 4)
M  V30 END COLLECTION
M  V30 END CTAB
M  END
>  <Rack>
PathogenBox_PlateC

>  <Position>
G02

>  <Compound ID>
MMV676191

>  <Disease Set>
CRYPTOSPORIDIOSIS

>  <Trivial Name>


>  <Total Molecular Weight>
244.29

>  <Molecular Weight Parent Molecule>
244.29

>  <Molecular Formula>
C15H16O3

>  <Salt Name>


>  <Salt Coefficient>


>  <cLogP>
2.95

>  <SMILES>
CC(C)C(Oc1cccc2ccccc12)C(=O)O

$$$$
Compound 222
Actelion Java MolfileCreator 2.0

  0  0  0  0  0  0              0 V3000
M  V30 BEGIN CTAB
M  V30 COUNTS 23 25 0 0 0
M  V30 BEGIN ATOM
M  V30 1 O 0.866 0.0 0.0 0
M  V30 2 C 1.732 -0.5 0.0 0
M  V30 3 C 0.0 -0.5 0.0 0
M  V30 4 C 1.732 -1.5 0.0 0
M  V30 5 C 2.598 0.0 0.0 0
M  V30 6 O 0.866 -1.9999 0.0 0
M  V30 7 C 2.598 -2.0 0.0 0
M  V30 8 C 3.4641 -0.5 0.0 0
M  V30 9 C 0.866 -2.9999 0.0 0
M  V30 10 C 3.4641 -1.5 0.0 0
M  V30 11 C 4.3301 0.0 0.0 0
M  V30 12 N 5.2436 -0.4067 0.0 0
M  V30 13 C 4.4346 0.9945 0.0 0
M  V30 14 N 5.9128 0.3364 0.0 0
M  V30 15 C 3.7655 1.7376 0.0 0
M  V30 16 C 5.4128 1.2024 0.0 0
M  V30 17 C 6.9073 0.2318 0.0 0
M  V30 18 N 4.0745 2.6887 0.0 0
M  V30 19 N 2.7873 1.5297 0.0 0
M  V30 20 N 5.7218 2.1534 0.0 0
M  V30 21 C 7.314 -0.6816 0.0 0
M  V30 22 C 7.4951 1.0408 0.0 0
M  V30 23 C 5.0526 2.8966 0.0 0
M  V30 END ATOM
M  V30 BEGIN BOND
M  V30 1 1 1 2
M  V30 2 1 1 3
M  V30 3 2 2 4
M  V30 4 1 2 5
M  V30 5 1 4 6
M  V30 6 1 4 7
M  V30 7 2 5 8
M  V30 8 1 6 9
M  V30 9 2 7 10
M  V30 10 1 8 11
M  V30 11 2 11 12
M  V30 12 1 11 13
M  V30 13 1 12 14
M  V30 14 2 13 15
M  V30 15 1 13 16
M  V30 16 1 14 17
M  V30 17 1 15 18
M  V30 18 1 15 19
M  V30 19 2 16 20
M  V30 20 1 17 21
M  V30 21 1 17 22
M  V30 22 2 18 23
M  V30 23 1 8 10
M  V30 24 1 14 16
M  V30 25 1 20 23
M  V30 END BOND
M  V30 END CTAB
M  END
>  <Rack>
PathogenBox_PlateC

>  <Position>
G03

>  <Compound ID>
MMV675993

>  <Disease Set>
CRYPTOSPORIDIOSIS

>  <Trivial Name>


>  <Total Molecular Weight>
313.35

>  <Molecular Weight Parent Molecule>
313.35

>  <Molecular Formula>
C16H19N5O2

>  <Salt Name>


>  <Salt Coefficient>


>  <cLogP>
1.79

>  <SMILES>
COc1ccc(cc1OC)c2nn(C(C)C)c3ncnc(N)c23

$$$$
Compound 223
Actelion Java MolfileCreator 2.0

  0  0  0  0  0  0              0 V3000
M  V30 BEGIN CTAB
M  V30 COUNTS 27 29 0 0 0
M  V30 BEGIN ATOM
M  V30 1 Cl 6.0621 -1.9999 0.0 0
M  V30 2 C 5.1961 -1.4999 0.0 0
M  V30 3 C 5.1961 -0.5 0.0 0
M  V30 4 C 4.3301 -1.9999 0.0 0
M  V30 5 C 4.3301 0.0 0.0 0
M  V30 6 C 3.4641 -1.5 0.0 0
M  V30 7 C 3.4641 -0.5 0.0 0
M  V30 8 N 2.598 0.0 0.0 0
M  V30 9 C 1.732 -0.5 0.0 0
M  V30 10 N 1.732 -1.5 0.0 0
M  V30 11 N 0.866 0.0 0.0 0
M  V30 12 C 0.0 -0.5 0.0 0
M  V30 13 N -0.866 0.0 0.0 0
M  V30 14 N 0.0 -1.4999 0.0 0
M  V30 15 C -1.732 -0.4999 0.0 0
M  V30 16 C -0.866 -1.9999 0.0 0
M  V30 17 N -2.598 0.0 0.0 0
M  V30 18 C -1.732 -1.4999 0.0 0
M  V30 19 C -0.866 -2.9999 0.0 0
M  V30 20 C -3.4641 -0.4999 0.0 0
M  V30 21 C -4.3301 0.0 0.0 0
M  V30 22 C -5.1961 -0.4999 0.0 0
M  V30 23 C -6.0621 0.0 0.0 0
M  V30 24 C -5.1961 -1.4999 0.0 0
M  V30 25 C -6.9282 -0.4999 0.0 0
M  V30 26 C -6.0621 -1.9999 0.0 0
M  V30 27 C -6.9282 -1.4999 0.0 0
M  V30 END ATOM
M  V30 BEGIN BOND
M  V30 1 1 1 2
M  V30 2 2 2 3
M  V30 3 1 2 4
M  V30 4 1 3 5
M  V30 5 2 4 6
M  V30 6 2 5 7
M  V30 7 1 7 8
M  V30 8 1 8 9
M  V30 9 2 9 10
M  V30 10 1 9 11
M  V30 11 1 11 12
M  V30 12 2 12 13
M  V30 13 1 12 14
M  V30 14 1 13 15
M  V30 15 2 14 16
M  V30 16 1 15 17
M  V30 17 2 15 18
M  V30 18 1 16 19
M  V30 19 1 17 20
M  V30 20 1 20 21
M  V30 21 1 21 22
M  V30 22 2 22 23
M  V30 23 1 22 24
M  V30 24 1 23 25
M  V30 25 2 24 26
M  V30 26 2 25 27
M  V30 27 1 6 7
M  V30 28 1 16 18
M  V30 29 1 26 27
M  V30 END BOND
M  V30 END CTAB
M  END
>  <Rack>
PathogenBox_PlateC

>  <Position>
G04

>  <Compound ID>
MMV021660

>  <Disease Set>
TUBERCULOSIS

>  <Trivial Name>


>  <Total Molecular Weight>
425.90

>  <Molecular Weight Parent Molecule>
380.88

>  <Molecular Formula>
C20H21N6Cl

>  <Salt Name>
Formate

>  <Salt Coefficient>
1

>  <cLogP>
4.06

>  <SMILES>
Cc1cc(NCCc2ccccc2)nc(NC(=N)Nc3ccc(Cl)cc3)n1

$$$$
Compound 224
Actelion Java MolfileCreator 2.0

  0  0  0  0  0  0              0 V3000
M  V30 BEGIN CTAB
M  V30 COUNTS 23 26 0 0 0
M  V30 BEGIN ATOM
M  V30 1 Cl 6.9099 -2.4695 0.0 0
M  V30 2 C 6.8054 -1.475 0.0 0
M  V30 3 C 5.8919 -1.0682 0.0 0
M  V30 4 C 7.6144 -0.8872 0.0 0
M  V30 5 C 5.7873 -0.0737 0.0 0
M  V30 6 C 4.9783 -1.475 0.0 0
M  V30 7 C 7.5099 0.1072 0.0 0
M  V30 8 N 4.8092 0.1341 0.0 0
M  V30 9 C 6.5964 0.514 0.0 0
M  V30 10 C 4.3092 -0.7318 0.0 0
M  V30 11 C 3.3147 -0.8364 0.0 0
M  V30 12 N 2.6455 -0.0932 0.0 0
M  V30 13 C 2.8147 -1.7024 0.0 0
M  V30 14 N 1.732 -0.5 0.0 0
M  V30 15 C 3.1237 -2.6534 0.0 0
M  V30 16 C 1.8365 -1.4945 0.0 0
M  V30 17 C 0.866 0.0 0.0 0
M  V30 18 N 2.4546 -3.3966 0.0 0
M  V30 19 N 4.1018 -2.8614 0.0 0
M  V30 20 N 1.1674 -2.2376 0.0 0
M  V30 21 C 0.866 1.0 0.0 0
M  V30 22 C 0.0 -0.5 0.0 0
M  V30 23 C 1.4764 -3.1887 0.0 0
M  V30 END ATOM
M  V30 BEGIN BOND
M  V30 1 1 1 2
M  V30 2 2 2 3
M  V30 3 1 2 4
M  V30 4 1 3 5
M  V30 5 1 3 6
M  V30 6 2 4 7
M  V30 7 1 5 8
M  V30 8 2 5 9
M  V30 9 2 6 10
M  V30 10 1 10 11
M  V30 11 2 11 12
M  V30 12 1 11 13
M  V30 13 1 12 14
M  V30 14 2 13 15
M  V30 15 1 13 16
M  V30 16 1 14 17
M  V30 17 1 15 18
M  V30 18 1 15 19
M  V30 19 2 16 20
M  V30 20 1 17 21
M  V30 21 1 17 22
M  V30 22 2 18 23
M  V30 23 1 7 9
M  V30 24 1 8 10
M  V30 25 1 14 16
M  V30 26 1 20 23
M  V30 END BOND
M  V30 END CTAB
M  END
>  <Rack>
PathogenBox_PlateC

>  <Position>
G05

>  <Compound ID>
MMV688417

>  <Disease Set>
TOXOPLASMOSIS

>  <Trivial Name>


>  <Total Molecular Weight>
326.78

>  <Molecular Weight Parent Molecule>
326.78

>  <Molecular Formula>
C16H15N6Cl

>  <Salt Name>


>  <Salt Coefficient>


>  <cLogP>
2.66

>  <SMILES>
CC(C)n1nc(-c2cc3c(Cl)cccc3[nH]2)c2c(N)ncnc12

$$$$
Compound 225
Actelion Java MolfileCreator 2.0

  0  0  0  0  0  0              0 V3000
M  V30 BEGIN CTAB
M  V30 COUNTS 24 26 0 0 0
M  V30 BEGIN ATOM
M  V30 1 N -1.5974 -0.3231 0.0 0
M  V30 2 C -0.6371 -0.7664 0.0 0
M  V30 3 C -2.4143 -0.8999 0.0 0
M  V30 4 C -0.0326 0.0023 0.0 0
M  V30 5 C 0.2515 -0.504 0.0 0
M  V30 6 C -3.3223 -0.4809 0.0 0
M  V30 7 C -0.0424 1.0625 0.0 0
M  V30 8 C 1.0669 -0.3143 0.0 0
M  V30 9 C 0.3548 0.7451 0.0 0
M  V30 10 C 1.2211 -0.7824 0.0 0
M  V30 11 N -4.1392 -1.0577 0.0 0
M  V30 12 C 0.8126 1.3943 0.0 0
M  V30 13 C 1.8006 -0.0184 0.0 0
M  V30 14 C -5.0472 -0.6386 0.0 0
M  V30 15 C 1.8098 1.0619 0.0 0
M  V30 16 C -5.8641 -1.2154 0.0 0
M  V30 17 C -6.772 -0.7963 0.0 0
M  V30 18 C -6.8631 0.1994 0.0 0
M  V30 19 C -7.5889 -1.3731 0.0 0
M  V30 20 C -7.771 0.6185 0.0 0
M  V30 21 C -7.8621 1.6143 0.0 0
M  V30 22 C -8.7701 2.0334 0.0 0
M  V30 23 C -8.8611 3.0292 0.0 0
M  V30 24 C -9.587 1.4566 0.0 0
M  V30 END ATOM
M  V30 BEGIN BOND
M  V30 1 1 1 2
M  V30 2 1 1 3
M  V30 3 1 2 4
M  V30 4 1 2 5
M  V30 5 1 3 6
M  V30 6 1 4 7
M  V30 7 1 4 8
M  V30 8 1 5 9
M  V30 9 1 5 10
M  V30 10 1 6 11
M  V30 11 1 7 12
M  V30 12 1 8 13
M  V30 13 1 11 14
M  V30 14 1 12 15
M  V30 15 1 14 16
M  V30 16 2 16 17
M  V30 17 1 17 18
M  V30 18 1 17 19
M  V30 19 1 18 20
M  V30 20 1 20 21
M  V30 21 2 21 22
M  V30 22 1 22 23
M  V30 23 1 22 24
M  V30 24 1 9 12
M  V30 25 1 10 13
M  V30 26 1 13 15
M  V30 END BOND
M  V30 END CTAB
M  END
>  <Rack>
PathogenBox_PlateC

>  <Position>
G06

>  <Compound ID>
MMV687273

>  <Disease Set>
TUBERCULOSIS

>  <Trivial Name>


>  <Total Molecular Weight>
330.55

>  <Molecular Weight Parent Molecule>
330.55

>  <Molecular Formula>
C22H38N2

>  <Salt Name>


>  <Salt Coefficient>


>  <cLogP>
4.92

>  <SMILES>
CC(=CCC\C(=C/CNCCNC1C2CC3CC(CC1C3)C2)\C)C

$$$$
Compound 226
Actelion Java MolfileCreator 2.0

  0  0  0  0  0  0              0 V3000
M  V30 BEGIN CTAB
M  V30 COUNTS 33 36 0 0 0
M  V30 BEGIN ATOM
M  V30 1 F 6.0418 -1.8832 0.0 0
M  V30 2 C 5.8339 -2.8614 0.0 0
M  V30 3 F 6.812 -3.0693 0.0 0
M  V30 4 F 5.626 -3.8395 0.0 0
M  V30 5 C 4.8557 -2.6534 0.0 0 CFG=2
M  V30 6 N 4.5467 -1.7024 0.0 0
M  V30 7 C 4.1866 -3.3966 0.0 0
M  V30 8 N 5.0467 -0.8364 0.0 0
M  V30 9 C 3.5686 -1.4945 0.0 0
M  V30 10 C 3.2085 -3.1887 0.0 0 CFG=2
M  V30 11 C 4.3776 -0.0932 0.0 0
M  V30 12 N 2.8994 -2.2376 0.0 0
M  V30 13 C 3.4641 -0.5 0.0 0
M  V30 14 C 2.5393 -3.9318 0.0 0
M  V30 15 C 2.598 0.0 0.0 0
M  V30 16 C 1.5612 -3.7239 0.0 0
M  V30 17 C 2.8484 -4.8829 0.0 0
M  V30 18 O 2.598 1.0 0.0 0
M  V30 19 N 1.732 -0.5 0.0 0
M  V30 20 C 0.8921 -4.4671 0.0 0
M  V30 21 C 2.1792 -5.626 0.0 0
M  V30 22 C 0.866 0.0 0.0 0
M  V30 23 C 1.2011 -5.4181 0.0 0
M  V30 24 C 0.0 -0.5 0.0 0
M  V30 25 C 0.5319 -6.1613 0.0 0
M  V30 26 C -0.866 0.0 0.0 0
M  V30 27 C 0.0 -1.4999 0.0 0
M  V30 28 C 0.841 -7.1123 0.0 0
M  V30 29 C -1.732 -0.4999 0.0 0
M  V30 30 C -0.866 -1.9999 0.0 0
M  V30 31 C -1.732 -1.4999 0.0 0
M  V30 32 O -2.598 -1.9999 0.0 0
M  V30 33 C -2.598 -2.9999 0.0 0
M  V30 END ATOM
M  V30 BEGIN BOND
M  V30 1 1 1 2
M  V30 2 1 2 3
M  V30 3 1 2 4
M  V30 4 1 5 2 CFG=1
M  V30 5 1 5 6
M  V30 6 1 5 7
M  V30 7 1 6 8
M  V30 8 1 6 9
M  V30 9 1 10 7
M  V30 10 2 8 11
M  V30 11 1 9 12
M  V30 12 2 9 13
M  V30 13 1 10 14 CFG=1
M  V30 14 1 13 15
M  V30 15 2 14 16
M  V30 16 1 14 17
M  V30 17 2 15 18
M  V30 18 1 15 19
M  V30 19 1 16 20
M  V30 20 2 17 21
M  V30 21 1 19 22
M  V30 22 2 20 23
M  V30 23 1 22 24
M  V30 24 1 23 25
M  V30 25 2 24 26
M  V30 26 1 24 27
M  V30 27 1 25 28
M  V30 28 1 26 29
M  V30 29 2 27 30
M  V30 30 2 29 31
M  V30 31 1 31 32
M  V30 32 1 32 33
M  V30 33 1 10 12
M  V30 34 1 11 13
M  V30 35 1 21 23
M  V30 36 1 30 31
M  V30 END BOND
M  V30 BEGIN COLLECTION
M  V30 MDLV30/STEABS ATOMS=(2 5 10)
M  V30 END COLLECTION
M  V30 END CTAB
M  END
>  <Rack>
PathogenBox_PlateC

>  <Position>
G07

>  <Compound ID>
MMV687180

>  <Disease Set>
TUBERCULOSIS

>  <Trivial Name>


>  <Total Molecular Weight>
458.48

>  <Molecular Weight Parent Molecule>
458.48

>  <Molecular Formula>
C24H25N4O2F3

>  <Salt Name>


>  <Salt Coefficient>


>  <cLogP>
4.02

>  <SMILES>
CCc1ccc(cc1)[C@@H]2C[C@@H](n3ncc(C(=O)NCc4ccc(OC)cc4)c3N2)C(F)(F)F

$$$$
Compound 227
Actelion Java MolfileCreator 2.0

  0  0  0  0  0  0              0 V3000
M  V30 BEGIN CTAB
M  V30 COUNTS 23 25 0 0 0
M  V30 BEGIN ATOM
M  V30 1 S 4.5467 -1.7024 0.0 0
M  V30 2 C 5.0467 -0.8364 0.0 0
M  V30 3 C 3.5686 -1.4945 0.0 0
M  V30 4 N 4.3776 -0.0932 0.0 0
M  V30 5 C 6.0412 -0.7318 0.0 0
M  V30 6 C 3.4641 -0.5 0.0 0
M  V30 7 O 6.7104 -1.475 0.0 0
M  V30 8 C 6.5412 0.1341 0.0 0
M  V30 9 C 2.598 0.0 0.0 0
M  V30 10 C 7.6239 -1.0682 0.0 0
M  V30 11 C 7.5194 -0.0737 0.0 0
M  V30 12 N 1.732 -0.5 0.0 0
M  V30 13 C 8.49 -1.5682 0.0 0
M  V30 14 C 1.732 -1.5 0.0 0
M  V30 15 C 0.866 0.0 0.0 0
M  V30 16 C 0.866 -2.0 0.0 0
M  V30 17 C 2.598 -1.9999 0.0 0
M  V30 18 C 0.0 -0.5 0.0 0
M  V30 19 N -0.866 0.0 0.0 0
M  V30 20 C 0.0 -1.4999 0.0 0
M  V30 21 C -1.732 -0.4999 0.0 0
M  V30 22 C -0.866 -1.9999 0.0 0
M  V30 23 C -1.732 -1.4999 0.0 0
M  V30 END ATOM
M  V30 BEGIN BOND
M  V30 1 1 1 2
M  V30 2 1 1 3
M  V30 3 2 2 4
M  V30 4 1 2 5
M  V30 5 2 3 6
M  V30 6 1 5 7
M  V30 7 2 5 8
M  V30 8 1 6 9
M  V30 9 1 7 10
M  V30 10 1 8 11
M  V30 11 1 9 12
M  V30 12 1 10 13
M  V30 13 1 12 14
M  V30 14 1 12 15
M  V30 15 1 14 16
M  V30 16 1 14 17
M  V30 17 1 15 18
M  V30 18 2 18 19
M  V30 19 1 18 20
M  V30 20 1 19 21
M  V30 21 2 20 22
M  V30 22 2 21 23
M  V30 23 1 4 6
M  V30 24 2 10 11
M  V30 25 1 22 23
M  V30 END BOND
M  V30 END CTAB
M  END
>  <Rack>
PathogenBox_PlateC

>  <Position>
G08

>  <Compound ID>
MMV1088520

>  <Disease Set>
MALARIA

>  <Trivial Name>


>  <Total Molecular Weight>
327.45

>  <Molecular Weight Parent Molecule>
327.45

>  <Molecular Formula>
C18H21N3OS

>  <Salt Name>


>  <Salt Coefficient>


>  <cLogP>
2.85

>  <SMILES>
CC(C)N(Cc1ccccn1)Cc2csc(n2)c3oc(C)cc3

$$$$
Compound 228
Actelion Java MolfileCreator 2.0

  0  0  0  0  0  0              0 V3000
M  V30 BEGIN CTAB
M  V30 COUNTS 27 29 0 0 0
M  V30 BEGIN ATOM
M  V30 1 Br 6.9282 -0.4999 0.0 0
M  V30 2 C 6.0621 0.0 0.0 0
M  V30 3 C 6.0621 1.0 0.0 0
M  V30 4 C 5.1961 -0.4999 0.0 0
M  V30 5 C 5.1961 1.5 0.0 0
M  V30 6 C 4.3301 0.0 0.0 0
M  V30 7 O 5.1961 2.5 0.0 0
M  V30 8 C 4.3301 1.0 0.0 0
M  V30 9 C 3.4641 -0.4999 0.0 0
M  V30 10 C 4.3301 3.0 0.0 0
M  V30 11 O 3.4641 1.5 0.0 0
M  V30 12 C 2.598 0.0 0.0 0
M  V30 13 C 2.598 1.0 0.0 0
M  V30 14 C 1.732 -0.5 0.0 0
M  V30 15 O 1.732 1.4999 0.0 0
M  V30 16 O 1.732 -1.5 0.0 0
M  V30 17 N 0.866 0.0 0.0 0
M  V30 18 C 0.0 -0.5 0.0 0
M  V30 19 C -0.866 0.0 0.0 0
M  V30 20 C 0.0 -1.4999 0.0 0
M  V30 21 C -1.732 -0.4999 0.0 0
M  V30 22 C -0.866 -1.9999 0.0 0
M  V30 23 C -1.732 -1.4999 0.0 0
M  V30 24 C -2.598 0.0 0.0 0
M  V30 25 F -3.098 -0.866 0.0 0
M  V30 26 F -3.4641 0.5 0.0 0
M  V30 27 F -2.098 0.866 0.0 0
M  V30 END ATOM
M  V30 BEGIN BOND
M  V30 1 1 1 2
M  V30 2 2 2 3
M  V30 3 1 2 4
M  V30 4 1 3 5
M  V30 5 2 4 6
M  V30 6 1 5 7
M  V30 7 2 5 8
M  V30 8 1 6 9
M  V30 9 1 7 10
M  V30 10 1 8 11
M  V30 11 2 9 12
M  V30 12 1 11 13
M  V30 13 1 12 14
M  V30 14 2 13 15
M  V30 15 2 14 16
M  V30 16 1 14 17
M  V30 17 1 17 18
M  V30 18 2 18 19
M  V30 19 1 18 20
M  V30 20 1 19 21
M  V30 21 2 20 22
M  V30 22 2 21 23
M  V30 23 1 21 24
M  V30 24 1 24 25
M  V30 25 1 24 26
M  V30 26 1 24 27
M  V30 27 1 6 8
M  V30 28 1 12 13
M  V30 29 1 22 23
M  V30 END BOND
M  V30 END CTAB
M  END
>  <Rack>
PathogenBox_PlateC

>  <Position>
G09

>  <Compound ID>
MMV688891

>  <Disease Set>
TUBERCULOSIS

>  <Trivial Name>


>  <Total Molecular Weight>
442.18

>  <Molecular Weight Parent Molecule>
442.18

>  <Molecular Formula>
C18H11NO4BrF3

>  <Salt Name>


>  <Salt Coefficient>


>  <cLogP>
3.83

>  <SMILES>
COc1cc(Br)cc2C=C(C(=O)Nc3cccc(c3)C(F)(F)F)C(=O)Oc12

$$$$
Compound 229
Actelion Java MolfileCreator 2.0

  0  0  0  0  0  0              0 V3000
M  V30 BEGIN CTAB
M  V30 COUNTS 22 25 0 0 0
M  V30 BEGIN ATOM
M  V30 1 Cl 7.423 1.8036 0.0 0
M  V30 2 C 5.923 1.8036 0.0 0
M  V30 3 C 5.173 3.1026 0.0 0
M  V30 4 C 5.173 0.5046 0.0 0
M  V30 5 N 3.673 3.1026 0.0 0
M  V30 6 C 3.673 0.5046 0.0 0
M  V30 7 C 2.923 1.8036 0.0 0
M  V30 8 N 2.6693 -0.6101 0.0 0
M  V30 9 N 1.4558 1.4917 0.0 0
M  V30 10 C 1.299 0.0 0.0 0
M  V30 11 C 0.0 -0.75 0.0 0
M  V30 12 C -1.299 0.0 0.0 0
M  V30 13 C 0.0 -2.2499 0.0 0
M  V30 14 N -2.598 -0.7499 0.0 0
M  V30 15 N -1.299 1.5 0.0 0
M  V30 16 C -1.299 -2.9999 0.0 0
M  V30 17 C -2.598 -2.2499 0.0 0
M  V30 18 C -1.299 -4.4999 0.0 0
M  V30 19 C -2.5125 -5.3816 0.0 0
M  V30 20 C -0.0855 -5.3816 0.0 0
M  V30 21 N -2.049 -6.8082 0.0 0
M  V30 22 N -0.549 -6.8082 0.0 0
M  V30 END ATOM
M  V30 BEGIN BOND
M  V30 1 1 1 2
M  V30 2 2 2 3
M  V30 3 1 2 4
M  V30 4 1 3 5
M  V30 5 2 4 6
M  V30 6 2 5 7
M  V30 7 1 6 8
M  V30 8 1 7 9
M  V30 9 2 8 10
M  V30 10 1 10 11
M  V30 11 2 11 12
M  V30 12 1 11 13
M  V30 13 1 12 14
M  V30 14 1 12 15
M  V30 15 2 13 16
M  V30 16 2 14 17
M  V30 17 1 16 18
M  V30 18 1 18 19
M  V30 19 2 18 20
M  V30 20 2 19 21
M  V30 21 1 20 22
M  V30 22 1 6 7
M  V30 23 1 9 10
M  V30 24 1 16 17
M  V30 25 1 21 22
M  V30 END BOND
M  V30 END CTAB
M  END
>  <Rack>
PathogenBox_PlateC

>  <Position>
G10

>  <Compound ID>
MMV023370

>  <Disease Set>
MALARIA

>  <Trivial Name>


>  <Total Molecular Weight>
311.74

>  <Molecular Weight Parent Molecule>
311.74

>  <Molecular Formula>
C14H10N7Cl

>  <Salt Name>


>  <Salt Coefficient>


>  <cLogP>
1.02

>  <SMILES>
Nc1ncc(cc1c2nc3cc(Cl)cnc3[nH]2)c4cn[nH]c4

$$$$
Compound 230
Actelion Java MolfileCreator 2.0

  0  0  0  0  0  0              0 V3000
M  V30 BEGIN CTAB
M  V30 COUNTS 25 28 0 0 0
M  V30 BEGIN ATOM
M  V30 1 F 3.4641 1.4999 0.0 0
M  V30 2 C 2.598 0.9999 0.0 0
M  V30 3 C 1.732 1.4999 0.0 0
M  V30 4 C 2.598 0.0 0.0 0
M  V30 5 C 0.866 0.9999 0.0 0
M  V30 6 C 1.732 -0.5 0.0 0
M  V30 7 C 0.866 0.0 0.0 0
M  V30 8 C 0.0 -0.5 0.0 0
M  V30 9 N -0.9135 -0.0932 0.0 0
M  V30 10 C -0.1045 -1.4945 0.0 0
M  V30 11 C -1.5826 -0.8364 0.0 0
M  V30 12 C 0.6386 -2.1636 0.0 0
M  V30 13 C -1.0826 -1.7024 0.0 0
M  V30 14 C -2.5771 -0.7318 0.0 0
M  V30 15 C 0.4307 -3.1418 0.0 0
M  V30 16 C 1.5896 -1.8546 0.0 0
M  V30 17 C -2.9839 0.1816 0.0 0
M  V30 18 C -3.1649 -1.5408 0.0 0
M  V30 19 C 1.1738 -3.8109 0.0 0
M  V30 20 C 2.3328 -2.5237 0.0 0
M  V30 21 C -3.9784 0.2861 0.0 0
M  V30 22 C -4.1595 -1.4363 0.0 0
M  V30 23 N 2.1249 -3.5019 0.0 0
M  V30 24 N -4.5662 -0.5228 0.0 0
M  V30 25 C -5.5607 -0.4182 0.0 0
M  V30 END ATOM
M  V30 BEGIN BOND
M  V30 1 1 1 2
M  V30 2 2 2 3
M  V30 3 1 2 4
M  V30 4 1 3 5
M  V30 5 2 4 6
M  V30 6 2 5 7
M  V30 7 1 7 8
M  V30 8 1 8 9
M  V30 9 2 8 10
M  V30 10 1 9 11
M  V30 11 1 10 12
M  V30 12 1 10 13
M  V30 13 1 11 14
M  V30 14 2 12 15
M  V30 15 1 12 16
M  V30 16 1 14 17
M  V30 17 1 14 18
M  V30 18 1 15 19
M  V30 19 2 16 20
M  V30 20 1 17 21
M  V30 21 1 18 22
M  V30 22 2 19 23
M  V30 23 1 21 24
M  V30 24 1 24 25
M  V30 25 1 6 7
M  V30 26 2 11 13
M  V30 27 1 20 23
M  V30 28 1 22 24
M  V30 END BOND
M  V30 END CTAB
M  END
>  <Rack>
PathogenBox_PlateC

>  <Position>
G11

>  <Compound ID>
MMV688703

>  <Disease Set>
TOXOPLASMOSIS

>  <Trivial Name>


>  <Total Molecular Weight>
335.42

>  <Molecular Weight Parent Molecule>
335.42

>  <Molecular Formula>
C21H22N3F

>  <Salt Name>


>  <Salt Coefficient>


>  <cLogP>
4.03

>  <SMILES>
CN1CCC(CC1)c1cc(c([nH]1)-c1ccc(F)cc1)-c1ccncc1

$$$$
Compound 231
Actelion Java MolfileCreator 2.0

  0  0  0  0  0  0              0 V3000
M  V30 BEGIN CTAB
M  V30 COUNTS 25 27 0 0 0
M  V30 BEGIN ATOM
M  V30 1 O 2.598 0.0 0.0 0
M  V30 2 C 1.732 -0.5 0.0 0
M  V30 3 N 0.866 0.0 0.0 0
M  V30 4 C 1.732 -1.5 0.0 0
M  V30 5 C 0.0 -0.5 0.0 0 CFG=1
M  V30 6 O 0.923 -2.0877 0.0 0
M  V30 7 C 2.541 -2.0877 0.0 0
M  V30 8 C -0.866 0.0 0.0 0 CFG=2
M  V30 9 C 0.0 -1.4999 0.0 0
M  V30 10 C 1.232 -3.0388 0.0 0
M  V30 11 C 2.232 -3.0388 0.0 0
M  V30 12 N -0.866 1.0 0.0 0
M  V30 13 C -1.732 -0.4999 0.0 0
M  V30 14 C -0.866 -1.9999 0.0 0
M  V30 15 C -1.732 1.5 0.0 0
M  V30 16 C -1.732 -1.4999 0.0 0
M  V30 17 C -1.732 2.5 0.0 0
M  V30 18 C -2.598 1.0 0.0 0
M  V30 19 C -2.598 3.0 0.0 0
M  V30 20 C -3.4641 1.5 0.0 0
M  V30 21 C -3.4641 2.5 0.0 0
M  V30 22 C -4.3301 3.0 0.0 0
M  V30 23 C -4.8301 2.1339 0.0 0
M  V30 24 C -5.1961 3.5 0.0 0
M  V30 25 C -3.8301 3.866 0.0 0
M  V30 END ATOM
M  V30 BEGIN BOND
M  V30 1 2 1 2
M  V30 2 1 2 3
M  V30 3 1 2 4
M  V30 4 1 5 3 CFG=3
M  V30 5 1 4 6
M  V30 6 2 4 7
M  V30 7 1 8 5
M  V30 8 1 5 9
M  V30 9 1 6 10
M  V30 10 1 7 11
M  V30 11 1 8 12 CFG=1
M  V30 12 1 8 13
M  V30 13 1 9 14
M  V30 14 1 12 15
M  V30 15 1 13 16
M  V30 16 2 15 17
M  V30 17 1 15 18
M  V30 18 1 17 19
M  V30 19 2 18 20
M  V30 20 2 19 21
M  V30 21 1 21 22
M  V30 22 1 22 23
M  V30 23 1 22 24
M  V30 24 1 22 25
M  V30 25 2 10 11
M  V30 26 1 14 16
M  V30 27 1 20 21
M  V30 END BOND
M  V30 BEGIN COLLECTION
M  V30 MDLV30/STEABS ATOMS=(2 5 8)
M  V30 END COLLECTION
M  V30 END CTAB
M  END
>  <Rack>
PathogenBox_PlateC

>  <Position>
H02

>  <Compound ID>
MMV675969

>  <Disease Set>
ONCHOCERCIASIS

>  <Trivial Name>


>  <Total Molecular Weight>
340.46

>  <Molecular Weight Parent Molecule>
340.46

>  <Molecular Formula>
C21H28N2O2

>  <Salt Name>


>  <Salt Coefficient>


>  <cLogP>
4.24

>  <SMILES>
CC(C)(C)c1ccc(N[C@@H]2CCCC[C@H]2NC(=O)c3occc3)cc1

$$$$
Compound 232
Actelion Java MolfileCreator 2.0

  0  0  0  0  0  0              0 V3000
M  V30 BEGIN CTAB
M  V30 COUNTS 28 31 0 0 0
M  V30 BEGIN ATOM
M  V30 1 O 0.866 0.0 0.0 0
M  V30 2 C 1.732 -0.5 0.0 0
M  V30 3 C 0.0 -0.5 0.0 0
M  V30 4 C 1.732 -1.5 0.0 0
M  V30 5 C 2.598 0.0 0.0 0
M  V30 6 O 0.866 -1.9999 0.0 0
M  V30 7 C 2.598 -2.0 0.0 0
M  V30 8 C 3.4641 -0.5 0.0 0
M  V30 9 C 0.866 -2.9999 0.0 0
M  V30 10 C 3.4641 -1.5 0.0 0
M  V30 11 C 4.3301 0.0 0.0 0
M  V30 12 N 5.2436 -0.4067 0.0 0
M  V30 13 N 4.4346 0.9945 0.0 0
M  V30 14 N 5.9128 0.3364 0.0 0
M  V30 15 C 5.4128 1.2024 0.0 0
M  V30 16 C 3.7655 1.7376 0.0 0
M  V30 17 C 5.7218 2.1534 0.0 0
M  V30 18 C 4.0745 2.6887 0.0 0
M  V30 19 C 5.0526 2.8966 0.0 0
M  V30 20 C 3.4054 3.4318 0.0 0
M  V30 21 C 3.7144 4.3829 0.0 0
M  V30 22 C 2.4272 3.2239 0.0 0
M  V30 23 C 3.0452 5.126 0.0 0
M  V30 24 C 1.7581 3.9671 0.0 0
M  V30 25 C 2.0671 4.9181 0.0 0
M  V30 26 C 3.3543 6.0771 0.0 0
M  V30 27 C 4.3324 6.285 0.0 0
M  V30 28 C 2.6851 6.8202 0.0 0
M  V30 END ATOM
M  V30 BEGIN BOND
M  V30 1 1 1 2
M  V30 2 1 1 3
M  V30 3 2 2 4
M  V30 4 1 2 5
M  V30 5 1 4 6
M  V30 6 1 4 7
M  V30 7 2 5 8
M  V30 8 1 6 9
M  V30 9 2 7 10
M  V30 10 1 8 11
M  V30 11 2 11 12
M  V30 12 1 11 13
M  V30 13 1 12 14
M  V30 14 1 13 15
M  V30 15 1 13 16
M  V30 16 1 15 17
M  V30 17 2 16 18
M  V30 18 2 17 19
M  V30 19 1 18 20
M  V30 20 2 20 21
M  V30 21 1 20 22
M  V30 22 1 21 23
M  V30 23 2 22 24
M  V30 24 2 23 25
M  V30 25 1 23 26
M  V30 26 1 26 27
M  V30 27 1 26 28
M  V30 28 1 8 10
M  V30 29 2 14 15
M  V30 30 1 18 19
M  V30 31 1 24 25
M  V30 END BOND
M  V30 END CTAB
M  END
>  <Rack>
PathogenBox_PlateC

>  <Position>
H03

>  <Compound ID>
MMV688313

>  <Disease Set>
SCHISTOSOMIASIS

>  <Trivial Name>


>  <Total Molecular Weight>
373.45

>  <Molecular Weight Parent Molecule>
373.45

>  <Molecular Formula>
C23H23N3O2

>  <Salt Name>


>  <Salt Coefficient>


>  <cLogP>
4.56

>  <SMILES>
COc1ccc(cc1OC)-c1nnc2ccc(cn12)-c1cccc(c1)C(C)C

$$$$
Compound 233
Actelion Java MolfileCreator 2.0

  0  0  0  0  0  0              0 V3000
M  V30 BEGIN CTAB
M  V30 COUNTS 29 33 0 0 0
M  V30 BEGIN ATOM
M  V30 1 O 1.732 -0.5 0.0 0
M  V30 2 C 0.866 0.0 0.0 0
M  V30 3 N 0.866 1.0 0.0 0
M  V30 4 C 0.0 -0.5 0.0 0
M  V30 5 C 1.732 1.4999 0.0 0
M  V30 6 C 0.0 1.4999 0.0 0
M  V30 7 C -0.866 0.0 0.0 0
M  V30 8 C 0.0 -1.4999 0.0 0
M  V30 9 C 1.732 2.5 0.0 0
M  V30 10 C 0.0 2.5 0.0 0
M  V30 11 C -1.732 -0.4999 0.0 0
M  V30 12 C -0.866 -1.9999 0.0 0
M  V30 13 C 0.866 3.0 0.0 0
M  V30 14 C 2.598 2.9999 0.0 0
M  V30 15 N -1.732 -1.4999 0.0 0
M  V30 16 C 0.866 4.0 0.0 0
M  V30 17 C 2.598 4.0 0.0 0
M  V30 18 C -2.598 -1.9999 0.0 0
M  V30 19 C 1.732 4.5 0.0 0
M  V30 20 N -3.4641 -1.4999 0.0 0
M  V30 21 C -2.598 -2.9999 0.0 0
M  V30 22 C -4.3301 -1.9999 0.0 0
M  V30 23 C -3.4641 -3.4999 0.0 0
M  V30 24 N -4.3301 -2.9999 0.0 0
M  V30 25 N -3.4641 -4.4999 0.0 0
M  V30 26 C -4.2731 -5.0877 0.0 0
M  V30 27 C -2.655 -5.0877 0.0 0
M  V30 28 C -3.9641 -6.0388 0.0 0
M  V30 29 C -2.9641 -6.0388 0.0 0
M  V30 END ATOM
M  V30 BEGIN BOND
M  V30 1 2 1 2
M  V30 2 1 2 3
M  V30 3 1 2 4
M  V30 4 1 3 5
M  V30 5 1 3 6
M  V30 6 1 4 7
M  V30 7 1 4 8
M  V30 8 1 5 9
M  V30 9 1 6 10
M  V30 10 1 7 11
M  V30 11 1 8 12
M  V30 12 2 9 13
M  V30 13 1 9 14
M  V30 14 1 11 15
M  V30 15 1 13 16
M  V30 16 2 14 17
M  V30 17 1 15 18
M  V30 18 2 16 19
M  V30 19 2 18 20
M  V30 20 1 18 21
M  V30 21 1 20 22
M  V30 22 2 21 23
M  V30 23 2 22 24
M  V30 24 1 23 25
M  V30 25 1 25 26
M  V30 26 1 25 27
M  V30 27 2 26 28
M  V30 28 2 27 29
M  V30 29 1 10 13
M  V30 30 1 12 15
M  V30 31 1 17 19
M  V30 32 1 23 24
M  V30 33 1 28 29
M  V30 END BOND
M  V30 END CTAB
M  END
>  <Rack>
PathogenBox_PlateC

>  <Position>
H04

>  <Compound ID>
MMV687172

>  <Disease Set>
TUBERCULOSIS

>  <Trivial Name>


>  <Total Molecular Weight>
387.48

>  <Molecular Weight Parent Molecule>
387.48

>  <Molecular Formula>
C23H25N5O

>  <Salt Name>


>  <Salt Coefficient>


>  <cLogP>
3.63

>  <SMILES>
O=C(C1CCN(CC1)c2cc(ncn2)n3cccc3)N4CCc5ccccc5C4

$$$$
Compound 234
Actelion Java MolfileCreator 2.0

  0  0  0  0  0  0              0 V3000
M  V30 BEGIN CTAB
M  V30 COUNTS 30 33 0 0 0
M  V30 BEGIN ATOM
M  V30 1 Cl 5.1961 1.5 0.0 0
M  V30 2 C 4.3301 1.0 0.0 0
M  V30 3 C 3.4641 1.5 0.0 0
M  V30 4 C 4.3301 0.0 0.0 0
M  V30 5 C 2.598 0.9999 0.0 0
M  V30 6 C 3.4641 -0.4999 0.0 0
M  V30 7 C 2.598 0.0 0.0 0
M  V30 8 C 1.732 -0.5 0.0 0
M  V30 9 C 0.866 0.0 0.0 0
M  V30 10 N 0.0 -0.5 0.0 0
M  V30 11 C -0.866 0.0 0.0 0
M  V30 12 C 0.0 -1.4999 0.0 0
M  V30 13 C -1.732 -0.4999 0.0 0
M  V30 14 C -0.866 -1.9999 0.0 0
M  V30 15 C -1.732 -1.4999 0.0 0
M  V30 16 C -2.598 -1.9999 0.0 0
M  V30 17 O -2.598 -2.9999 0.0 0
M  V30 18 N -3.4641 -1.4999 0.0 0
M  V30 19 C -4.3301 -1.9999 0.0 0
M  V30 20 C -5.1961 -1.4999 0.0 0
M  V30 21 C -4.3301 -2.9999 0.0 0
M  V30 22 N -5.1961 -0.4999 0.0 0
M  V30 23 C -6.0621 -1.9999 0.0 0
M  V30 24 C -5.1961 -3.4999 0.0 0
M  V30 25 C -6.0621 0.0 0.0 0
M  V30 26 N -6.0621 -2.9999 0.0 0
M  V30 27 C -6.9282 -1.4999 0.0 0
M  V30 28 O -6.0621 1.0 0.0 0
M  V30 29 C -6.9282 -0.4999 0.0 0
M  V30 30 C -6.9282 1.5 0.0 0
M  V30 END ATOM
M  V30 BEGIN BOND
M  V30 1 1 1 2
M  V30 2 2 2 3
M  V30 3 1 2 4
M  V30 4 1 3 5
M  V30 5 2 4 6
M  V30 6 2 5 7
M  V30 7 1 7 8
M  V30 8 1 8 9
M  V30 9 1 9 10
M  V30 10 1 10 11
M  V30 11 1 10 12
M  V30 12 1 11 13
M  V30 13 1 12 14
M  V30 14 1 13 15
M  V30 15 1 15 16
M  V30 16 2 16 17
M  V30 17 1 16 18
M  V30 18 1 18 19
M  V30 19 1 19 20
M  V30 20 2 19 21
M  V30 21 2 20 22
M  V30 22 1 20 23
M  V30 23 1 21 24
M  V30 24 1 22 25
M  V30 25 1 23 26
M  V30 26 2 23 27
M  V30 27 1 25 28
M  V30 28 2 25 29
M  V30 29 1 28 30
M  V30 30 1 6 7
M  V30 31 1 14 15
M  V30 32 2 24 26
M  V30 33 1 27 29
M  V30 END BOND
M  V30 END CTAB
M  END
>  <Rack>
PathogenBox_PlateC

>  <Position>
H05

>  <Compound ID>
MMV688844

>  <Disease Set>
TUBERCULOSIS

>  <Trivial Name>


>  <Total Molecular Weight>
424.92

>  <Molecular Weight Parent Molecule>
424.92

>  <Molecular Formula>
C23H25N4O2Cl

>  <Salt Name>


>  <Salt Coefficient>


>  <cLogP>
3.83

>  <SMILES>
COc1ccc2nccc(NC(=O)C3CCN(CCc4ccc(Cl)cc4)CC3)c2n1

$$$$
Compound 235
Actelion Java MolfileCreator 2.0

  0  0  0  0  0  0              0 V3000
M  V30 BEGIN CTAB
M  V30 COUNTS 25 26 0 0 0
M  V30 BEGIN ATOM
M  V30 1 O 5.1961 2.4999 0.0 0
M  V30 2 C 5.1961 1.4999 0.0 0
M  V30 3 N 4.3301 1.0 0.0 0
M  V30 4 C 6.0621 0.9999 0.0 0
M  V30 5 C 4.3301 0.0 0.0 0
M  V30 6 C 3.4641 1.5 0.0 0
M  V30 7 C 6.9282 1.4999 0.0 0
M  V30 8 C 6.0621 0.0 0.0 0
M  V30 9 O 3.4641 -0.5 0.0 0
M  V30 10 C 5.1961 -0.5 0.0 0
M  V30 11 N 7.7942 1.9999 0.0 0
M  V30 12 C 6.9282 -0.5 0.0 0
M  V30 13 C 2.598 0.0 0.0 0
M  V30 14 C 1.732 -0.5 0.0 0
M  V30 15 O 1.732 -1.5 0.0 0
M  V30 16 N 0.866 0.0 0.0 0
M  V30 17 C 0.0 -0.5 0.0 0
M  V30 18 C -0.866 0.0 0.0 0
M  V30 19 C 0.0 -1.4999 0.0 0
M  V30 20 C -1.732 -0.4999 0.0 0
M  V30 21 C -0.866 -1.9999 0.0 0
M  V30 22 C -1.732 -1.4999 0.0 0
M  V30 23 C -2.598 -1.9999 0.0 0
M  V30 24 C -3.4641 -1.4999 0.0 0
M  V30 25 C -2.598 -2.9999 0.0 0
M  V30 END ATOM
M  V30 BEGIN BOND
M  V30 1 2 1 2
M  V30 2 1 2 3
M  V30 3 1 2 4
M  V30 4 1 3 5
M  V30 5 1 3 6
M  V30 6 1 4 7
M  V30 7 2 4 8
M  V30 8 1 5 9
M  V30 9 2 5 10
M  V30 10 3 7 11
M  V30 11 1 8 12
M  V30 12 1 9 13
M  V30 13 1 13 14
M  V30 14 2 14 15
M  V30 15 1 14 16
M  V30 16 1 16 17
M  V30 17 2 17 18
M  V30 18 1 17 19
M  V30 19 1 18 20
M  V30 20 2 19 21
M  V30 21 2 20 22
M  V30 22 1 22 23
M  V30 23 1 23 24
M  V30 24 1 23 25
M  V30 25 1 8 10
M  V30 26 1 21 22
M  V30 END BOND
M  V30 END CTAB
M  END
>  <Rack>
PathogenBox_PlateC

>  <Position>
H06

>  <Compound ID>
MMV1198433

>  <Disease Set>
SCHISTOSOMIASIS

>  <Trivial Name>


>  <Total Molecular Weight>
339.39

>  <Molecular Weight Parent Molecule>
339.39

>  <Molecular Formula>
C19H21N3O3

>  <Salt Name>


>  <Salt Coefficient>


>  <cLogP>
2.61

>  <SMILES>
CC(C)c1ccc(NC(=O)COC2=CC(=C(C#N)C(=O)N2C)C)cc1

$$$$
Compound 236
Actelion Java MolfileCreator 2.0

  0  0  0  0  0  0              0 V3000
M  V30 BEGIN CTAB
M  V30 COUNTS 22 25 0 0 0
M  V30 BEGIN ATOM
M  V30 1 N 2.598 0.9999 0.0 0
M  V30 2 C 1.732 1.4999 0.0 0
M  V30 3 C 2.598 0.0 0.0 0
M  V30 4 C 0.866 0.9999 0.0 0
M  V30 5 C 1.732 -0.5 0.0 0
M  V30 6 C 0.866 0.0 0.0 0
M  V30 7 C 0.0 -0.5 0.0 0
M  V30 8 C -0.9135 -0.0932 0.0 0
M  V30 9 C -0.1045 -1.4945 0.0 0
M  V30 10 C -1.5826 -0.8364 0.0 0
M  V30 11 C -1.2225 0.8577 0.0 0
M  V30 12 N -1.0826 -1.7024 0.0 0
M  V30 13 C 0.6386 -2.1636 0.0 0 CFG=2
M  V30 14 C -2.5608 -0.6284 0.0 0
M  V30 15 C -2.2007 1.0657 0.0 0
M  V30 16 C 0.4307 -3.1418 0.0 0
M  V30 17 C 1.5896 -1.8546 0.0 0
M  V30 18 C -2.8698 0.3225 0.0 0
M  V30 19 C -2.5097 2.0167 0.0 0
M  V30 20 N 1.1738 -3.8109 0.0 0
M  V30 21 C 2.3328 -2.5237 0.0 0
M  V30 22 C 2.1249 -3.5019 0.0 0
M  V30 END ATOM
M  V30 BEGIN BOND
M  V30 1 2 1 2
M  V30 2 1 1 3
M  V30 3 1 2 4
M  V30 4 2 3 5
M  V30 5 2 4 6
M  V30 6 1 6 7
M  V30 7 1 7 8
M  V30 8 2 7 9
M  V30 9 2 8 10
M  V30 10 1 8 11
M  V30 11 1 9 12
M  V30 12 1 13 9 CFG=1
M  V30 13 1 10 14
M  V30 14 2 11 15
M  V30 15 1 13 16
M  V30 16 1 13 17
M  V30 17 2 14 18
M  V30 18 1 15 19
M  V30 19 1 16 20
M  V30 20 1 17 21
M  V30 21 1 20 22
M  V30 22 1 5 6
M  V30 23 1 10 12
M  V30 24 1 15 18
M  V30 25 1 21 22
M  V30 END BOND
M  V30 BEGIN COLLECTION
M  V30 MDLV30/STERAC1 ATOMS=(1 13)
M  V30 END COLLECTION
M  V30 END CTAB
M  END
>  <Rack>
PathogenBox_PlateC

>  <Position>
H07

>  <Compound ID>
MMV024311

>  <Disease Set>
TUBERCULOSIS

>  <Trivial Name>


>  <Total Molecular Weight>
364.32

>  <Molecular Weight Parent Molecule>
291.40

>  <Molecular Formula>
C19H21N3

>  <Salt Name>
Hydrochloride

>  <Salt Coefficient>
2

>  <cLogP>
3.58

>  <SMILES>
Cc1ccc2[nH]c(C3CCCNC3)c(c4ccncc4)c2c1

$$$$
Compound 237
Actelion Java MolfileCreator 2.0

  0  0  0  0  0  0              0 V3000
M  V30 BEGIN CTAB
M  V30 COUNTS 24 25 0 0 0
M  V30 BEGIN ATOM
M  V30 1 N 6.0621 0.9999 0.0 0
M  V30 2 C 5.1961 1.4999 0.0 0
M  V30 3 C 6.0621 0.0 0.0 0
M  V30 4 N 4.3301 0.9999 0.0 0
M  V30 5 N 5.1961 2.5 0.0 0
M  V30 6 N 5.1961 -0.5 0.0 0
M  V30 7 N 6.9282 -0.5 0.0 0
M  V30 8 C 4.3301 0.0 0.0 0
M  V30 9 C 6.0621 2.9999 0.0 0
M  V30 10 C 4.3301 3.0 0.0 0
M  V30 11 C 3.4641 -0.5 0.0 0
M  V30 12 N 2.598 0.0 0.0 0
M  V30 13 C 1.732 -0.5 0.0 0 CFG=2
M  V30 14 C 1.732 -1.5 0.0 0
M  V30 15 C 0.866 0.0 0.0 0
M  V30 16 C 0.866 -1.9999 0.0 0
M  V30 17 C 2.598 -1.9999 0.0 0
M  V30 18 C 0.866 1.0 0.0 0
M  V30 19 C 0.0 -0.5 0.0 0
M  V30 20 C 0.866 -2.9999 0.0 0
M  V30 21 C 2.598 -2.9999 0.0 0
M  V30 22 C 1.732 -3.4999 0.0 0
M  V30 23 C 1.732 -4.5 0.0 0
M  V30 24 C 2.598 -4.9999 0.0 0
M  V30 END ATOM
M  V30 BEGIN BOND
M  V30 1 2 1 2
M  V30 2 1 1 3
M  V30 3 1 2 4
M  V30 4 1 2 5
M  V30 5 2 3 6
M  V30 6 1 3 7
M  V30 7 2 4 8
M  V30 8 1 5 9
M  V30 9 1 5 10
M  V30 10 1 8 11
M  V30 11 1 11 12
M  V30 12 1 13 12 CFG=3
M  V30 13 1 13 14
M  V30 14 1 13 15
M  V30 15 2 14 16
M  V30 16 1 14 17
M  V30 17 1 15 18
M  V30 18 1 15 19
M  V30 19 1 16 20
M  V30 20 2 17 21
M  V30 21 2 20 22
M  V30 22 1 22 23
M  V30 23 1 23 24
M  V30 24 1 6 8
M  V30 25 1 21 22
M  V30 END BOND
M  V30 BEGIN COLLECTION
M  V30 MDLV30/STERAC1 ATOMS=(1 13)
M  V30 END COLLECTION
M  V30 END CTAB
M  END
>  <Rack>
PathogenBox_PlateC

>  <Position>
H08

>  <Compound ID>
MMV1019989

>  <Disease Set>
MALARIA

>  <Trivial Name>


>  <Total Molecular Weight>
328.46

>  <Molecular Weight Parent Molecule>
328.46

>  <Molecular Formula>
C18H28N6

>  <Salt Name>


>  <Salt Coefficient>


>  <cLogP>
2.31

>  <SMILES>
CCc1ccc(cc1)C(NCc2nc(N)nc(n2)N(C)C)C(C)C

$$$$
Compound 238
Actelion Java MolfileCreator 2.0

  0  0  0  0  0  0              0 V3000
M  V30 BEGIN CTAB
M  V30 COUNTS 25 27 0 0 0
M  V30 BEGIN ATOM
M  V30 1 S 5.8542 -2.9781 0.0 0
M  V30 2 C 6.0621 -2.0 0.0 0
M  V30 3 C 4.8597 -3.0826 0.0 0
M  V30 4 N 6.9282 -1.5 0.0 0
M  V30 5 C 5.1961 -1.5 0.0 0
M  V30 6 C 4.453 -2.1691 0.0 0
M  V30 7 C 4.3597 -3.9487 0.0 0
M  V30 8 C 6.9282 -0.5 0.0 0
M  V30 9 C 5.1961 -0.5 0.0 0
M  V30 10 C 3.4748 -1.9612 0.0 0
M  V30 11 N 6.0621 0.0 0.0 0
M  V30 12 C 7.7942 0.0 0.0 0
M  V30 13 N 4.3301 0.0 0.0 0
M  V30 14 C 8.6602 -0.4999 0.0 0
M  V30 15 C 7.7942 0.9999 0.0 0
M  V30 16 C 4.3301 1.0 0.0 0 CFG=2
M  V30 17 N 9.5262 0.0 0.0 0
M  V30 18 C 8.6602 1.5 0.0 0
M  V30 19 C 3.4641 1.5 0.0 0
M  V30 20 C 5.1961 1.5 0.0 0
M  V30 21 C 9.5262 1.0 0.0 0
M  V30 22 O 2.598 1.0 0.0 0
M  V30 23 N 3.4641 2.5 0.0 0
M  V30 24 C 2.598 3.0 0.0 0
M  V30 25 C 2.598 4.0 0.0 0
M  V30 END ATOM
M  V30 BEGIN BOND
M  V30 1 1 1 2
M  V30 2 1 1 3
M  V30 3 2 2 4
M  V30 4 1 2 5
M  V30 5 2 3 6
M  V30 6 1 3 7
M  V30 7 1 4 8
M  V30 8 2 5 9
M  V30 9 1 6 10
M  V30 10 2 8 11
M  V30 11 1 8 12
M  V30 12 1 9 13
M  V30 13 2 12 14
M  V30 14 1 12 15
M  V30 15 1 16 13 CFG=3
M  V30 16 1 14 17
M  V30 17 2 15 18
M  V30 18 1 16 19
M  V30 19 1 16 20
M  V30 20 2 17 21
M  V30 21 2 19 22
M  V30 22 1 19 23
M  V30 23 1 23 24
M  V30 24 1 24 25
M  V30 25 1 5 6
M  V30 26 1 9 11
M  V30 27 1 18 21
M  V30 END BOND
M  V30 BEGIN COLLECTION
M  V30 MDLV30/STERAC1 ATOMS=(1 16)
M  V30 END COLLECTION
M  V30 END CTAB
M  END
>  <Rack>
PathogenBox_PlateC

>  <Position>
H09

>  <Compound ID>
MMV1037162

>  <Disease Set>
MALARIA

>  <Trivial Name>


>  <Total Molecular Weight>
355.46

>  <Molecular Weight Parent Molecule>
355.46

>  <Molecular Formula>
C18H21N5OS

>  <Salt Name>


>  <Salt Coefficient>


>  <cLogP>
2.39

>  <SMILES>
CCNC(=O)C(C)Nc1nc(nc2sc(C)c(C)c12)c3cccnc3

$$$$
Compound 239
Actelion Java MolfileCreator 2.0

  0  0  0  0  0  0              0 V3000
M  V30 BEGIN CTAB
M  V30 COUNTS 24 26 0 0 0
M  V30 BEGIN ATOM
M  V30 1 Cl 5.1961 -0.5 0.0 0
M  V30 2 C 4.3301 0.0 0.0 0
M  V30 3 C 4.3301 1.0 0.0 0
M  V30 4 C 3.4641 -0.4999 0.0 0
M  V30 5 C 3.4641 1.5 0.0 0
M  V30 6 C 2.598 0.0 0.0 0
M  V30 7 Cl 3.4641 2.5 0.0 0
M  V30 8 C 2.598 1.0 0.0 0
M  V30 9 C 1.732 -0.5 0.0 0 CFG=1
M  V30 10 N 0.866 0.0 0.0 0
M  V30 11 C 1.732 -1.5 0.0 0
M  V30 12 C 0.866 1.0 0.0 0
M  V30 13 C 0.0 -0.5 0.0 0
M  V30 14 N 1.732 1.4999 0.0 0
M  V30 15 N 0.0 1.4999 0.0 0
M  V30 16 C 1.732 2.5 0.0 0
M  V30 17 C 0.0 2.5 0.0 0
M  V30 18 N 2.598 3.0 0.0 0
M  V30 19 C 0.866 3.0 0.0 0
M  V30 20 C 2.598 4.0 0.0 0
M  V30 21 C 0.866 3.9999 0.0 0
M  V30 22 N 1.732 4.5 0.0 0
M  V30 23 N 3.4641 4.5 0.0 0
M  V30 24 N 0.0 4.4999 0.0 0
M  V30 END ATOM
M  V30 BEGIN BOND
M  V30 1 1 1 2
M  V30 2 2 2 3
M  V30 3 1 2 4
M  V30 4 1 3 5
M  V30 5 2 4 6
M  V30 6 1 5 7
M  V30 7 2 5 8
M  V30 8 1 9 6
M  V30 9 1 9 10 CFG=3
M  V30 10 1 9 11
M  V30 11 1 10 12
M  V30 12 1 10 13
M  V30 13 2 12 14
M  V30 14 1 12 15
M  V30 15 1 14 16
M  V30 16 2 15 17
M  V30 17 2 16 18
M  V30 18 1 16 19
M  V30 19 1 18 20
M  V30 20 2 19 21
M  V30 21 2 20 22
M  V30 22 1 20 23
M  V30 23 1 21 24
M  V30 24 1 6 8
M  V30 25 1 17 19
M  V30 26 1 21 22
M  V30 END BOND
M  V30 BEGIN COLLECTION
M  V30 MDLV30/STERAC1 ATOMS=(1 9)
M  V30 END COLLECTION
M  V30 END CTAB
M  END
>  <Rack>
PathogenBox_PlateC

>  <Position>
H10

>  <Compound ID>
MMV689437

>  <Disease Set>
KINETOPLASTIDS

>  <Trivial Name>


>  <Total Molecular Weight>
364.23

>  <Molecular Weight Parent Molecule>
364.23

>  <Molecular Formula>
C15H15N7Cl2

>  <Salt Name>


>  <Salt Coefficient>


>  <cLogP>
2.68

>  <SMILES>
CC(N(C)c1ncc2c(N)nc(N)nc2n1)c3cc(Cl)cc(Cl)c3

$$$$
Compound 240
Actelion Java MolfileCreator 2.0

  0  0  0  0  0  0              0 V3000
M  V30 BEGIN CTAB
M  V30 COUNTS 23 25 0 0 0
M  V30 BEGIN ATOM
M  V30 1 Cl 8.0655 2.534 0.0 0
M  V30 2 C 7.071 2.4295 0.0 0
M  V30 3 C 6.4832 3.2385 0.0 0
M  V30 4 C 6.6643 1.516 0.0 0
M  V30 5 C 5.4887 3.134 0.0 0
M  V30 6 C 5.6697 1.4114 0.0 0
M  V30 7 O 4.9009 3.943 0.0 0
M  V30 8 C 5.082 2.2205 0.0 0
M  V30 9 O 4.0874 2.1159 0.0 0
M  V30 10 C 3.6807 1.2024 0.0 0
M  V30 11 O 2.7026 0.9945 0.0 0
M  V30 12 C 4.1807 0.3364 0.0 0
M  V30 13 C 2.598 0.0 0.0 0
M  V30 14 C 3.5116 -0.4067 0.0 0
M  V30 15 C 1.732 -0.5 0.0 0
M  V30 16 O 1.732 -1.5 0.0 0
M  V30 17 N 0.866 0.0 0.0 0
M  V30 18 C 0.0 -0.5 0.0 0
M  V30 19 N -0.9135 -0.0932 0.0 0
M  V30 20 C -0.1045 -1.4945 0.0 0
M  V30 21 O -1.5826 -0.8364 0.0 0
M  V30 22 C -1.0826 -1.7024 0.0 0
M  V30 23 C -1.4894 -2.6159 0.0 0
M  V30 END ATOM
M  V30 BEGIN BOND
M  V30 1 1 1 2
M  V30 2 2 2 3
M  V30 3 1 2 4
M  V30 4 1 3 5
M  V30 5 2 4 6
M  V30 6 1 5 7
M  V30 7 2 5 8
M  V30 8 1 8 9
M  V30 9 1 9 10
M  V30 10 1 10 11
M  V30 11 2 10 12
M  V30 12 1 11 13
M  V30 13 1 12 14
M  V30 14 1 13 15
M  V30 15 2 15 16
M  V30 16 1 15 17
M  V30 17 1 17 18
M  V30 18 2 18 19
M  V30 19 1 18 20
M  V30 20 1 19 21
M  V30 21 2 20 22
M  V30 22 1 22 23
M  V30 23 1 6 8
M  V30 24 2 13 14
M  V30 25 1 21 22
M  V30 END BOND
M  V30 END CTAB
M  END
>  <Rack>
PathogenBox_PlateC

>  <Position>
H11

>  <Compound ID>
MMV688955

>  <Disease Set>
TOXOPLASMOSIS

>  <Trivial Name>


>  <Total Molecular Weight>
334.71

>  <Molecular Weight Parent Molecule>
334.71

>  <Molecular Formula>
C15H11N2O5Cl

>  <Salt Name>


>  <Salt Coefficient>


>  <cLogP>
3.16

>  <SMILES>
Cc1cc(NC(=O)c2ccc(Oc3ccc(Cl)cc3O)o2)no1

$$$$
Compound 241
Actelion Java MolfileCreator 2.0

  0  0  0  0  0  0              0 V3000
M  V30 BEGIN CTAB
M  V30 COUNTS 22 24 0 0 0
M  V30 BEGIN ATOM
M  V30 1 Cl 6.4951 0.0 0.0 0
M  V30 2 C 5.1961 -0.75 0.0 0
M  V30 3 C 3.8971 0.0 0.0 0
M  V30 4 C 5.1961 -2.2499 0.0 0
M  V30 5 C 2.598 -0.75 0.0 0
M  V30 6 C 3.8971 -3.0 0.0 0
M  V30 7 N 1.299 0.0 0.0 0
M  V30 8 C 2.598 -2.25 0.0 0
M  V30 9 C 0.0 -0.75 0.0 0
M  V30 10 C -1.299 0.0 0.0 0
M  V30 11 C 0.0 -2.2499 0.0 0
M  V30 12 N -2.598 -0.7499 0.0 0
M  V30 13 C -1.299 -2.9999 0.0 0
M  V30 14 C -2.598 -2.2499 0.0 0
M  V30 15 C -1.299 -4.4999 0.0 0
M  V30 16 C -2.598 -5.2499 0.0 0
M  V30 17 C 0.0 -5.2499 0.0 0
M  V30 18 C -2.598 -6.7499 0.0 0
M  V30 19 C 0.0 -6.7499 0.0 0
M  V30 20 C -1.299 -7.4999 0.0 0
M  V30 21 C -1.299 -8.9999 0.0 0
M  V30 22 O 0.0 -9.7499 0.0 0
M  V30 END ATOM
M  V30 BEGIN BOND
M  V30 1 1 1 2
M  V30 2 2 2 3
M  V30 3 1 2 4
M  V30 4 1 3 5
M  V30 5 2 4 6
M  V30 6 1 5 7
M  V30 7 2 5 8
M  V30 8 1 7 9
M  V30 9 2 9 10
M  V30 10 1 9 11
M  V30 11 1 10 12
M  V30 12 2 11 13
M  V30 13 2 12 14
M  V30 14 1 13 15
M  V30 15 2 15 16
M  V30 16 1 15 17
M  V30 17 1 16 18
M  V30 18 2 17 19
M  V30 19 2 18 20
M  V30 20 1 20 21
M  V30 21 1 21 22
M  V30 22 1 6 8
M  V30 23 1 13 14
M  V30 24 1 19 20
M  V30 END BOND
M  V30 END CTAB
M  END
>  <Rack>
PathogenBox_PlateD

>  <Position>
A02

>  <Compound ID>
MMV026468

>  <Disease Set>
MALARIA

>  <Trivial Name>


>  <Total Molecular Weight>
310.78

>  <Molecular Weight Parent Molecule>
310.78

>  <Molecular Formula>
C18H15N2OCl

>  <Salt Name>


>  <Salt Coefficient>


>  <cLogP>
3.86

>  <SMILES>
OCc1ccc(cc1)c2cncc(Nc3cccc(Cl)c3)c2

$$$$
Compound 242
Actelion Java MolfileCreator 2.0

  0  0  0  0  0  0              0 V3000
M  V30 BEGIN CTAB
M  V30 COUNTS 29 32 0 0 0
M  V30 BEGIN ATOM
M  V30 1 O 5.1961 -0.5 0.0 0
M  V30 2 C 4.3301 0.0 0.0 0
M  V30 3 N 3.4641 -0.5 0.0 0
M  V30 4 C 4.3301 1.0 0.0 0
M  V30 5 C 2.598 0.0 0.0 0
M  V30 6 N 5.1961 1.4999 0.0 0
M  V30 7 C 3.4641 1.5 0.0 0
M  V30 8 C 1.732 -0.5 0.0 0
M  V30 9 C 5.1961 2.4999 0.0 0
M  V30 10 C 3.4641 2.5 0.0 0
M  V30 11 C 0.866 0.0 0.0 0
M  V30 12 C 6.0621 3.0 0.0 0
M  V30 13 C 4.3301 2.9999 0.0 0
M  V30 14 N 0.0 -0.5 0.0 0
M  V30 15 C 6.9282 2.5 0.0 0
M  V30 16 C 6.0621 4.0 0.0 0
M  V30 17 C 4.3301 4.0 0.0 0
M  V30 18 C -0.9135 -0.0932 0.0 0
M  V30 19 C -0.1045 -1.4945 0.0 0
M  V30 20 C 6.9282 1.5 0.0 0
M  V30 21 C 7.7942 2.9999 0.0 0
M  V30 22 N 5.1961 4.5 0.0 0
M  V30 23 N -1.5826 -0.8364 0.0 0
M  V30 24 C -1.0826 -1.7024 0.0 0
M  V30 25 C 7.7942 1.0 0.0 0
M  V30 26 C 8.6602 2.4999 0.0 0
M  V30 27 C 8.6602 1.4999 0.0 0
M  V30 28 O 9.5262 0.9999 0.0 0
M  V30 29 C 10.3923 1.4999 0.0 0
M  V30 END ATOM
M  V30 BEGIN BOND
M  V30 1 2 1 2
M  V30 2 1 2 3
M  V30 3 1 2 4
M  V30 4 1 3 5
M  V30 5 2 4 6
M  V30 6 1 4 7
M  V30 7 1 5 8
M  V30 8 1 6 9
M  V30 9 2 7 10
M  V30 10 1 8 11
M  V30 11 2 9 12
M  V30 12 1 9 13
M  V30 13 1 11 14
M  V30 14 1 12 15
M  V30 15 1 12 16
M  V30 16 2 13 17
M  V30 17 1 14 18
M  V30 18 1 14 19
M  V30 19 2 15 20
M  V30 20 1 15 21
M  V30 21 2 16 22
M  V30 22 2 18 23
M  V30 23 2 19 24
M  V30 24 1 20 25
M  V30 25 2 21 26
M  V30 26 2 25 27
M  V30 27 1 27 28
M  V30 28 1 28 29
M  V30 29 1 10 13
M  V30 30 1 17 22
M  V30 31 1 23 24
M  V30 32 1 26 27
M  V30 END BOND
M  V30 END CTAB
M  END
>  <Rack>
PathogenBox_PlateD

>  <Position>
A03

>  <Compound ID>
MMV020670

>  <Disease Set>
MALARIA

>  <Trivial Name>


>  <Total Molecular Weight>
387.44

>  <Molecular Weight Parent Molecule>
387.44

>  <Molecular Formula>
C22H21N5O2

>  <Salt Name>


>  <Salt Coefficient>


>  <cLogP>
2.15

>  <SMILES>
COc1ccc(cc1)c2cncc3ccc(nc23)C(=O)NCCCn4ccnc4

$$$$
Compound 243
Actelion Java MolfileCreator 2.0

  0  0  0  0  0  0              0 V3000
M  V30 BEGIN CTAB
M  V30 COUNTS 30 33 0 0 0
M  V30 BEGIN ATOM
M  V30 1 O 8.6602 5.5 0.0 0
M  V30 2 C 8.6602 4.4999 0.0 0
M  V30 3 N 7.7942 3.9999 0.0 0
M  V30 4 C 9.5262 4.0 0.0 0
M  V30 5 C 7.7942 2.9999 0.0 0
M  V30 6 C 9.5262 3.0 0.0 0
M  V30 7 C 10.3923 4.5 0.0 0
M  V30 8 C 6.9282 2.4999 0.0 0
M  V30 9 C 8.6602 2.4999 0.0 0
M  V30 10 C 10.3923 2.5 0.0 0
M  V30 11 C 11.2583 4.0 0.0 0
M  V30 12 C 6.9282 1.4999 0.0 0
M  V30 13 C 8.6602 1.4999 0.0 0
M  V30 14 C 11.2583 3.0 0.0 0
M  V30 15 C 6.0621 0.9999 0.0 0
M  V30 16 C 7.7942 0.9999 0.0 0
M  V30 17 C 5.1961 1.4999 0.0 0
M  V30 18 C 6.0621 0.0 0.0 0
M  V30 19 N 4.3301 0.9999 0.0 0
M  V30 20 C 5.1961 -0.5 0.0 0
M  V30 21 C 4.3301 0.0 0.0 0
M  V30 22 N 3.4641 -0.5 0.0 0
M  V30 23 C 2.598 0.0 0.0 0
M  V30 24 C 1.732 -0.5 0.0 0
M  V30 25 C 0.866 0.0 0.0 0
M  V30 26 N 0.0 -0.5 0.0 0
M  V30 27 C -0.9135 -0.0932 0.0 0
M  V30 28 C -0.1045 -1.4945 0.0 0
M  V30 29 C -1.5826 -0.8364 0.0 0
M  V30 30 C -1.0826 -1.7024 0.0 0
M  V30 END ATOM
M  V30 BEGIN BOND
M  V30 1 2 1 2
M  V30 2 1 2 3
M  V30 3 1 2 4
M  V30 4 1 3 5
M  V30 5 2 4 6
M  V30 6 1 4 7
M  V30 7 2 5 8
M  V30 8 1 5 9
M  V30 9 1 6 10
M  V30 10 2 7 11
M  V30 11 1 8 12
M  V30 12 2 9 13
M  V30 13 2 10 14
M  V30 14 1 12 15
M  V30 15 2 12 16
M  V30 16 2 15 17
M  V30 17 1 15 18
M  V30 18 1 17 19
M  V30 19 2 18 20
M  V30 20 2 19 21
M  V30 21 1 21 22
M  V30 22 1 22 23
M  V30 23 1 23 24
M  V30 24 1 24 25
M  V30 25 1 25 26
M  V30 26 1 26 27
M  V30 27 1 26 28
M  V30 28 1 27 29
M  V30 29 1 28 30
M  V30 30 1 11 14
M  V30 31 1 13 16
M  V30 32 1 20 21
M  V30 33 1 29 30
M  V30 END BOND
M  V30 END CTAB
M  END
>  <Rack>
PathogenBox_PlateD

>  <Position>
A04

>  <Compound ID>
MMV023953

>  <Disease Set>
MALARIA

>  <Trivial Name>


>  <Total Molecular Weight>
400.53

>  <Molecular Weight Parent Molecule>
400.53

>  <Molecular Formula>
C25H28N4O

>  <Salt Name>


>  <Salt Coefficient>


>  <cLogP>
4.41

>  <SMILES>
O=C(Nc1cccc(c1)c2ccc(NCCCN3CCCC3)nc2)c4ccccc4

$$$$
Compound 244
Actelion Java MolfileCreator 2.0

  0  0  0  0  0  0              0 V3000
M  V30 BEGIN CTAB
M  V30 COUNTS 26 28 0 0 0
M  V30 BEGIN ATOM
M  V30 1 S 9.5262 -1.9999 0.0 0
M  V30 2 O 9.0262 -2.866 0.0 0
M  V30 3 O 10.0262 -1.1339 0.0 0
M  V30 4 C 8.6602 -1.4999 0.0 0
M  V30 5 C 10.3923 -2.4999 0.0 0
M  V30 6 C 8.6602 -0.5 0.0 0
M  V30 7 C 7.7942 -2.0 0.0 0
M  V30 8 C 7.7942 0.0 0.0 0
M  V30 9 C 6.9282 -1.4999 0.0 0
M  V30 10 C 6.9282 -0.5 0.0 0
M  V30 11 C 6.0621 0.0 0.0 0
M  V30 12 C 6.0621 0.9999 0.0 0
M  V30 13 C 5.1961 -0.5 0.0 0
M  V30 14 N 5.1961 1.4999 0.0 0
M  V30 15 C 4.3301 0.0 0.0 0
M  V30 16 C 4.3301 1.0 0.0 0
M  V30 17 C 3.4641 -0.5 0.0 0
M  V30 18 N 3.4641 1.5 0.0 0
M  V30 19 C 2.598 0.0 0.0 0
M  V30 20 C 3.4641 -1.4999 0.0 0
M  V30 21 C 1.732 -0.5 0.0 0
M  V30 22 C 2.598 -2.0 0.0 0
M  V30 23 O 0.866 0.0 0.0 0
M  V30 24 C 1.732 -1.5 0.0 0
M  V30 25 C 0.0 -0.5 0.0 0
M  V30 26 O 0.866 -1.9999 0.0 0
M  V30 END ATOM
M  V30 BEGIN BOND
M  V30 1 2 1 2
M  V30 2 2 1 3
M  V30 3 1 1 4
M  V30 4 1 1 5
M  V30 5 2 4 6
M  V30 6 1 4 7
M  V30 7 1 6 8
M  V30 8 2 7 9
M  V30 9 2 8 10
M  V30 10 1 10 11
M  V30 11 2 11 12
M  V30 12 1 11 13
M  V30 13 1 12 14
M  V30 14 2 13 15
M  V30 15 2 14 16
M  V30 16 1 15 17
M  V30 17 1 16 18
M  V30 18 2 17 19
M  V30 19 1 17 20
M  V30 20 1 19 21
M  V30 21 2 20 22
M  V30 22 1 21 23
M  V30 23 2 21 24
M  V30 24 1 23 25
M  V30 25 1 24 26
M  V30 26 1 9 10
M  V30 27 1 15 16
M  V30 28 1 22 24
M  V30 END BOND
M  V30 END CTAB
M  END
>  <Rack>
PathogenBox_PlateD

>  <Position>
A05

>  <Compound ID>
MMV010576

>  <Disease Set>
MALARIA

>  <Trivial Name>


>  <Total Molecular Weight>
370.43

>  <Molecular Weight Parent Molecule>
370.43

>  <Molecular Formula>
C19H18N2O4S

>  <Salt Name>


>  <Salt Coefficient>


>  <cLogP>
2.24

>  <SMILES>
COc1cc(ccc1O)c2cc(cnc2N)c3ccc(cc3)S(=O)(=O)C

$$$$
Compound 245
Actelion Java MolfileCreator 2.0

  0  0  0  0  0  0              0 V3000
M  V30 BEGIN CTAB
M  V30 COUNTS 27 30 0 0 0
M  V30 BEGIN ATOM
M  V30 1 F -0.7383 3.3147 0.0 0
M  V30 2 C -0.7383 4.3147 0.0 0
M  V30 3 F -1.7383 4.3147 0.0 0
M  V30 4 F -0.7383 5.3147 0.0 0
M  V30 5 C 0.2616 4.3147 0.0 0
M  V30 6 C 0.7616 3.4487 0.0 0
M  V30 7 C 0.7616 5.1807 0.0 0
M  V30 8 C 1.7616 3.4487 0.0 0
M  V30 9 C 1.7616 5.1807 0.0 0
M  V30 10 C 2.2616 2.5826 0.0 0
M  V30 11 C 2.2616 4.3147 0.0 0
M  V30 12 N 1.8549 1.6691 0.0 0
M  V30 13 N 3.2561 2.4781 0.0 0
M  V30 14 C 2.598 0.9999 0.0 0
M  V30 15 C 3.4641 1.5 0.0 0
M  V30 16 C 2.598 0.0 0.0 0
M  V30 17 C 4.3301 1.0 0.0 0
M  V30 18 N 3.4641 -0.4999 0.0 0
M  V30 19 N 1.732 -0.5 0.0 0
M  V30 20 C 4.3301 0.0 0.0 0
M  V30 21 C 0.866 0.0 0.0 0
M  V30 22 C 0.0 -0.5 0.0 0
M  V30 23 C -0.866 0.0 0.0 0
M  V30 24 C 0.0 -1.4999 0.0 0
M  V30 25 C -1.732 -0.4999 0.0 0
M  V30 26 C -0.866 -1.9999 0.0 0
M  V30 27 N -1.732 -1.4999 0.0 0
M  V30 END ATOM
M  V30 BEGIN BOND
M  V30 1 1 1 2
M  V30 2 1 2 3
M  V30 3 1 2 4
M  V30 4 1 2 5
M  V30 5 2 5 6
M  V30 6 1 5 7
M  V30 7 1 6 8
M  V30 8 2 7 9
M  V30 9 1 8 10
M  V30 10 2 8 11
M  V30 11 2 10 12
M  V30 12 1 10 13
M  V30 13 1 12 14
M  V30 14 1 13 15
M  V30 15 1 14 16
M  V30 16 1 15 17
M  V30 17 2 16 18
M  V30 18 1 16 19
M  V30 19 2 17 20
M  V30 20 1 19 21
M  V30 21 1 21 22
M  V30 22 2 22 23
M  V30 23 1 22 24
M  V30 24 1 23 25
M  V30 25 2 24 26
M  V30 26 2 25 27
M  V30 27 1 9 11
M  V30 28 2 14 15
M  V30 29 1 18 20
M  V30 30 1 26 27
M  V30 END BOND
M  V30 END CTAB
M  END
>  <Rack>
PathogenBox_PlateD

>  <Position>
A06

>  <Compound ID>
MMV032967

>  <Disease Set>
MALARIA

>  <Trivial Name>


>  <Total Molecular Weight>
369.35

>  <Molecular Weight Parent Molecule>
369.35

>  <Molecular Formula>
C19H14N5F3

>  <Salt Name>


>  <Salt Coefficient>


>  <cLogP>
3.17

>  <SMILES>
FC(F)(F)c1cccc(c1)c2nc3c(NCc4ccncc4)nccc3[nH]2

$$$$
Compound 246
Actelion Java MolfileCreator 2.0

  0  0  0  0  0  0              0 V3000
M  V30 BEGIN CTAB
M  V30 COUNTS 31 35 0 0 0
M  V30 BEGIN ATOM
M  V30 1 Cl 8.2647 -0.6226 0.0 0
M  V30 2 C 7.2702 -0.518 0.0 0
M  V30 3 C 6.8634 0.3954 0.0 0
M  V30 4 C 6.6824 -1.327 0.0 0
M  V30 5 C 5.8689 0.5 0.0 0
M  V30 6 C 5.6879 -1.2225 0.0 0
M  V30 7 N 5.2811 1.309 0.0 0
M  V30 8 C 5.2811 -0.309 0.0 0
M  V30 9 C 4.3301 1.0 0.0 0
M  V30 10 C 4.3301 0.0 0.0 0
M  V30 11 C 3.4641 1.4999 0.0 0
M  V30 12 C 3.4641 -0.5 0.0 0
M  V30 13 N 2.598 0.9999 0.0 0
M  V30 14 C 4.3301 1.9999 0.0 0
M  V30 15 C 2.598 1.9999 0.0 0
M  V30 16 C 2.598 0.0 0.0 0 CFG=2
M  V30 17 C 4.3301 2.9999 0.0 0
M  V30 18 C 2.598 3.0 0.0 0
M  V30 19 C 1.732 -0.5 0.0 0
M  V30 20 N 3.4641 3.4999 0.0 0
M  V30 21 O 1.732 -1.5 0.0 0
M  V30 22 N 0.866 0.0 0.0 0
M  V30 23 C 3.4641 4.4999 0.0 0
M  V30 24 C 0.0 -0.5 0.0 0
M  V30 25 C 4.3301 4.9999 0.0 0
M  V30 26 C 4.3301 5.9999 0.0 0
M  V30 27 C 5.1961 6.4999 0.0 0
M  V30 28 C 3.4641 6.5 0.0 0
M  V30 29 C 5.1961 7.4999 0.0 0
M  V30 30 C 3.4641 7.5 0.0 0
M  V30 31 C 4.3301 7.9999 0.0 0
M  V30 END ATOM
M  V30 BEGIN BOND
M  V30 1 1 1 2
M  V30 2 2 2 3
M  V30 3 1 2 4
M  V30 4 1 3 5
M  V30 5 2 4 6
M  V30 6 1 5 7
M  V30 7 2 5 8
M  V30 8 1 7 9
M  V30 9 1 8 10
M  V30 10 1 9 11
M  V30 11 1 10 12
M  V30 12 1 11 13
M  V30 13 1 11 14
M  V30 14 1 11 15
M  V30 15 1 16 12
M  V30 16 1 14 17
M  V30 17 1 15 18
M  V30 18 1 16 19 CFG=1
M  V30 19 1 17 20
M  V30 20 2 19 21
M  V30 21 1 19 22
M  V30 22 1 20 23
M  V30 23 1 22 24
M  V30 24 1 23 25
M  V30 25 1 25 26
M  V30 26 2 26 27
M  V30 27 1 26 28
M  V30 28 1 27 29
M  V30 29 2 28 30
M  V30 30 2 29 31
M  V30 31 1 6 8
M  V30 32 2 9 10
M  V30 33 1 13 16
M  V30 34 1 18 20
M  V30 35 1 30 31
M  V30 END BOND
M  V30 BEGIN COLLECTION
M  V30 MDLV30/STERAC1 ATOMS=(1 16)
M  V30 END COLLECTION
M  V30 END CTAB
M  END
>  <Rack>
PathogenBox_PlateD

>  <Position>
A07

>  <Compound ID>
MMV031011

>  <Disease Set>
MALARIA

>  <Trivial Name>


>  <Total Molecular Weight>
436.99

>  <Molecular Weight Parent Molecule>
436.99

>  <Molecular Formula>
C25H29N4OCl

>  <Salt Name>


>  <Salt Coefficient>


>  <cLogP>
3.58

>  <SMILES>
CNC(=O)C1Cc2c([nH]c3cc(Cl)ccc23)C4(CCN(CCc5ccccc5)CC4)N1

$$$$
Compound 247
Actelion Java MolfileCreator 2.0

  0  0  0  0  0  0              0 V3000
M  V30 BEGIN CTAB
M  V30 COUNTS 28 32 0 0 0
M  V30 BEGIN ATOM
M  V30 1 O 1.299 0.0 0.0 0
M  V30 2 C 2.598 -0.75 0.0 0
M  V30 3 C 0.0 -0.75 0.0 0
M  V30 4 C 2.598 -2.25 0.0 0
M  V30 5 C 3.8971 0.0 0.0 0
M  V30 6 C -1.299 0.0 0.0 0
M  V30 7 C 0.0 -2.2499 0.0 0
M  V30 8 C 3.8971 -3.0 0.0 0
M  V30 9 C 5.1961 -0.75 0.0 0
M  V30 10 C -2.598 -0.7499 0.0 0
M  V30 11 C -1.299 -2.9999 0.0 0
M  V30 12 C 5.1961 -2.25 0.0 0
M  V30 13 C -2.598 -2.2499 0.0 0
M  V30 14 C 6.4951 -3.0 0.0 0
M  V30 15 N 6.4951 -4.5 0.0 0
M  V30 16 C 7.7942 -2.25 0.0 0
M  V30 17 C 7.7942 -5.25 0.0 0
M  V30 18 N 9.0932 -3.0 0.0 0
M  V30 19 C 7.7942 -6.75 0.0 0
M  V30 20 C 9.0932 -4.5 0.0 0
M  V30 21 C 9.0932 -7.5 0.0 0
M  V30 22 C 6.4951 -7.5 0.0 0
M  V30 23 C 9.0932 -9.0 0.0 0
M  V30 24 C 6.4951 -9.0 0.0 0
M  V30 25 C 7.7942 -9.75 0.0 0
M  V30 26 C 10.2079 -10.0036 0.0 0
M  V30 27 N 8.106 -11.2172 0.0 0
M  V30 28 C 9.5978 -11.374 0.0 0
M  V30 END ATOM
M  V30 BEGIN BOND
M  V30 1 1 1 2
M  V30 2 1 1 3
M  V30 3 2 2 4
M  V30 4 1 2 5
M  V30 5 2 3 6
M  V30 6 1 3 7
M  V30 7 1 4 8
M  V30 8 2 5 9
M  V30 9 1 6 10
M  V30 10 2 7 11
M  V30 11 2 8 12
M  V30 12 2 10 13
M  V30 13 1 12 14
M  V30 14 2 14 15
M  V30 15 1 14 16
M  V30 16 1 15 17
M  V30 17 2 16 18
M  V30 18 1 17 19
M  V30 19 2 17 20
M  V30 20 2 19 21
M  V30 21 1 19 22
M  V30 22 1 21 23
M  V30 23 2 22 24
M  V30 24 2 23 25
M  V30 25 1 23 26
M  V30 26 1 25 27
M  V30 27 2 26 28
M  V30 28 1 9 12
M  V30 29 1 11 13
M  V30 30 1 18 20
M  V30 31 1 24 25
M  V30 32 1 27 28
M  V30 END BOND
M  V30 END CTAB
M  END
>  <Rack>
PathogenBox_PlateD

>  <Position>
A08

>  <Compound ID>
MMV688178

>  <Disease Set>
SCHISTOSOMIASIS

>  <Trivial Name>


>  <Total Molecular Weight>
363.41

>  <Molecular Weight Parent Molecule>
363.41

>  <Molecular Formula>
C24H17N3O

>  <Salt Name>


>  <Salt Coefficient>


>  <cLogP>
4.59

>  <SMILES>
O(c1ccccc1)c1ccc(cc1)-c1cncc(n1)-c1ccc2[nH]ccc2c1

$$$$
Compound 248
Actelion Java MolfileCreator 2.0

  0  0  0  0  0  0              0 V3000
M  V30 BEGIN CTAB
M  V30 COUNTS 27 31 0 0 0
M  V30 BEGIN ATOM
M  V30 1 O 2.8059 0.9781 0.0 0
M  V30 2 C 2.598 0.0 0.0 0
M  V30 3 C 3.8005 1.0826 0.0 0
M  V30 4 C 1.732 -0.5 0.0 0
M  V30 5 C 3.4641 -0.4999 0.0 0
M  V30 6 C 4.3005 1.9487 0.0 0
M  V30 7 C 4.2072 0.1691 0.0 0
M  V30 8 O 0.866 0.0 0.0 0
M  V30 9 C 1.732 -1.5 0.0 0
M  V30 10 C 3.4641 -1.4999 0.0 0
M  V30 11 C 5.3005 1.9487 0.0 0
M  V30 12 C 3.8005 2.8147 0.0 0
M  V30 13 C 0.0 -0.5 0.0 0
M  V30 14 C 2.598 -1.9999 0.0 0
M  V30 15 C 5.8005 2.8147 0.0 0
M  V30 16 C 4.3005 3.6807 0.0 0
M  V30 17 C 2.598 -3.0 0.0 0
M  V30 18 C 5.3005 3.6807 0.0 0
M  V30 19 N 1.789 -3.5877 0.0 0
M  V30 20 N 3.407 -3.5877 0.0 0
M  V30 21 C 5.8005 4.5467 0.0 0
M  V30 22 C 2.098 -4.5388 0.0 0
M  V30 23 C 3.098 -4.5388 0.0 0
M  V30 24 N 6.795 4.6513 0.0 0
M  V30 25 N 5.3937 5.4603 0.0 0
M  V30 26 C 7.0029 5.6294 0.0 0
M  V30 27 C 6.1369 6.1294 0.0 0
M  V30 END ATOM
M  V30 BEGIN BOND
M  V30 1 1 1 2
M  V30 2 1 1 3
M  V30 3 2 2 4
M  V30 4 1 2 5
M  V30 5 1 3 6
M  V30 6 2 3 7
M  V30 7 1 4 8
M  V30 8 1 4 9
M  V30 9 2 5 10
M  V30 10 2 6 11
M  V30 11 1 6 12
M  V30 12 1 8 13
M  V30 13 2 9 14
M  V30 14 1 11 15
M  V30 15 2 12 16
M  V30 16 1 14 17
M  V30 17 2 15 18
M  V30 18 2 17 19
M  V30 19 1 17 20
M  V30 20 1 18 21
M  V30 21 1 19 22
M  V30 22 1 20 23
M  V30 23 2 21 24
M  V30 24 1 21 25
M  V30 25 1 24 26
M  V30 26 1 25 27
M  V30 27 1 5 7
M  V30 28 1 10 14
M  V30 29 1 16 18
M  V30 30 1 22 23
M  V30 31 1 26 27
M  V30 END BOND
M  V30 END CTAB
M  END
>  <Rack>
PathogenBox_PlateD

>  <Position>
A09

>  <Compound ID>
MMV688362

>  <Disease Set>
KINETOPLASTIDS

>  <Trivial Name>


>  <Total Molecular Weight>
360.41

>  <Molecular Weight Parent Molecule>
360.41

>  <Molecular Formula>
C21H20N4O2

>  <Salt Name>


>  <Salt Coefficient>


>  <cLogP>
2.53

>  <SMILES>
COc1cc(cc2cc(oc12)c3ccc(cc3)C4=NCCN4)C5=NCCN5

$$$$
Compound 249
Actelion Java MolfileCreator 2.0

  0  0  0  0  0  0              0 V3000
M  V30 BEGIN CTAB
M  V30 COUNTS 24 27 0 0 0
M  V30 BEGIN ATOM
M  V30 1 O 1.299 0.0 0.0 0
M  V30 2 C 2.598 -0.75 0.0 0
M  V30 3 C 0.0 -0.75 0.0 0
M  V30 4 C 2.598 -2.25 0.0 0
M  V30 5 C 3.8971 0.0 0.0 0
M  V30 6 C -1.299 0.0 0.0 0
M  V30 7 C 0.0 -2.2499 0.0 0
M  V30 8 C 3.8971 -3.0 0.0 0
M  V30 9 C 5.1961 -0.75 0.0 0
M  V30 10 C -2.598 -0.7499 0.0 0
M  V30 11 C -1.299 -2.9999 0.0 0
M  V30 12 C 5.1961 -2.25 0.0 0
M  V30 13 C -2.598 -2.2499 0.0 0
M  V30 14 C 6.4951 -3.0 0.0 0
M  V30 15 N 6.6519 -4.4917 0.0 0
M  V30 16 C 7.8655 -2.3898 0.0 0
M  V30 17 N 8.1192 -4.8036 0.0 0
M  V30 18 C 8.8692 -3.5046 0.0 0
M  V30 19 N 10.3609 -3.3478 0.0 0
M  V30 20 C 11.2426 -4.5613 0.0 0
M  V30 21 C 10.971 -1.9775 0.0 0
M  V30 22 C 12.7344 -4.4045 0.0 0
M  V30 23 C 12.4628 -1.8207 0.0 0
M  V30 24 N 13.3445 -3.0342 0.0 0
M  V30 END ATOM
M  V30 BEGIN BOND
M  V30 1 1 1 2
M  V30 2 1 1 3
M  V30 3 2 2 4
M  V30 4 1 2 5
M  V30 5 2 3 6
M  V30 6 1 3 7
M  V30 7 1 4 8
M  V30 8 2 5 9
M  V30 9 1 6 10
M  V30 10 2 7 11
M  V30 11 2 8 12
M  V30 12 2 10 13
M  V30 13 1 12 14
M  V30 14 2 14 15
M  V30 15 1 14 16
M  V30 16 1 15 17
M  V30 17 2 16 18
M  V30 18 1 18 19
M  V30 19 1 19 20
M  V30 20 1 19 21
M  V30 21 1 20 22
M  V30 22 1 21 23
M  V30 23 1 22 24
M  V30 24 1 9 12
M  V30 25 1 11 13
M  V30 26 1 17 18
M  V30 27 1 23 24
M  V30 END BOND
M  V30 END CTAB
M  END
>  <Rack>
PathogenBox_PlateD

>  <Position>
A10

>  <Compound ID>
MMV687706

>  <Disease Set>
KINETOPLASTIDS

>  <Trivial Name>


>  <Total Molecular Weight>
356.85

>  <Molecular Weight Parent Molecule>
320.39

>  <Molecular Formula>
C19H20N4O

>  <Salt Name>
Hydrochloride

>  <Salt Coefficient>
1

>  <cLogP>
2.58

>  <SMILES>
C1CN(CCN1)c2cc(n[nH]2)c3ccc(Oc4ccccc4)cc3

$$$$
Compound 250
Actelion Java MolfileCreator 2.0

  0  0  0  0  0  0              0 V3000
M  V30 BEGIN CTAB
M  V30 COUNTS 29 32 0 0 0
M  V30 BEGIN ATOM
M  V30 1 O 1.732 2.4999 0.0 0
M  V30 2 C 1.732 1.4999 0.0 0
M  V30 3 N 0.866 0.9999 0.0 0
M  V30 4 C 2.598 0.9999 0.0 0
M  V30 5 C 0.866 0.0 0.0 0
M  V30 6 N 3.5116 1.4067 0.0 0
M  V30 7 C 2.7026 0.0054 0.0 0
M  V30 8 C 0.0 -0.5 0.0 0
M  V30 9 N 4.1807 0.6635 0.0 0
M  V30 10 C 3.7195 2.3848 0.0 0
M  V30 11 C 3.6807 -0.2024 0.0 0
M  V30 12 C 0.0 -1.4999 0.0 0
M  V30 13 C -0.866 0.0 0.0 0
M  V30 14 N 0.866 -2.0 0.0 0
M  V30 15 C -0.866 -1.9999 0.0 0
M  V30 16 N -1.732 -0.4999 0.0 0
M  V30 17 C -0.866 1.0 0.0 0
M  V30 18 C 0.866 -3.0 0.0 0
M  V30 19 C -1.732 -1.4999 0.0 0
M  V30 20 C -1.0739 -2.9781 0.0 0
M  V30 21 C 1.732 -3.4999 0.0 0
M  V30 22 C 0.0 -3.5 0.0 0
M  V30 23 N -2.4751 -2.1691 0.0 0
M  V30 24 N -2.0684 -3.0826 0.0 0
M  V30 25 C 1.732 -4.4999 0.0 0
M  V30 26 C 0.0 -4.5 0.0 0
M  V30 27 C -3.4533 -1.9612 0.0 0
M  V30 28 O 0.866 -4.9999 0.0 0
M  V30 29 C -4.1224 -2.7043 0.0 0
M  V30 END ATOM
M  V30 BEGIN BOND
M  V30 1 2 1 2
M  V30 2 1 2 3
M  V30 3 1 2 4
M  V30 4 1 3 5
M  V30 5 1 4 6
M  V30 6 2 4 7
M  V30 7 1 5 8
M  V30 8 1 6 9
M  V30 9 1 6 10
M  V30 10 1 7 11
M  V30 11 2 8 12
M  V30 12 1 8 13
M  V30 13 1 12 14
M  V30 14 1 12 15
M  V30 15 2 13 16
M  V30 16 1 13 17
M  V30 17 1 14 18
M  V30 18 2 15 19
M  V30 19 1 15 20
M  V30 20 1 18 21
M  V30 21 1 18 22
M  V30 22 1 19 23
M  V30 23 2 20 24
M  V30 24 1 21 25
M  V30 25 1 22 26
M  V30 26 1 23 27
M  V30 27 1 25 28
M  V30 28 1 27 29
M  V30 29 2 9 11
M  V30 30 1 16 19
M  V30 31 1 23 24
M  V30 32 1 26 28
M  V30 END BOND
M  V30 END CTAB
M  END
>  <Rack>
PathogenBox_PlateD

>  <Position>
A11

>  <Compound ID>
MMV026356

>  <Disease Set>
MALARIA

>  <Trivial Name>


>  <Total Molecular Weight>
397.48

>  <Molecular Weight Parent Molecule>
397.48

>  <Molecular Formula>
C20H27N7O2

>  <Salt Name>


>  <Salt Coefficient>


>  <cLogP>
-0.01

>  <SMILES>
CCn1ncc2c(NC3CCOCC3)c(CNC(=O)c4ccnn4C)c(C)nc12

$$$$
Compound 251
Actelion Java MolfileCreator 2.0

  0  0  0  0  0  0              0 V3000
M  V30 BEGIN CTAB
M  V30 COUNTS 27 29 0 0 0
M  V30 BEGIN ATOM
M  V30 1 O 5.1961 1.5 0.0 0
M  V30 2 C 4.3301 1.0 0.0 0
M  V30 3 C 5.1961 2.5 0.0 0
M  V30 4 C 3.4641 1.5 0.0 0
M  V30 5 C 4.3301 0.0 0.0 0
M  V30 6 C 2.598 0.9999 0.0 0
M  V30 7 C 3.4641 -0.4999 0.0 0
M  V30 8 C 2.598 0.0 0.0 0
M  V30 9 C 1.732 -0.5 0.0 0
M  V30 10 C 0.866 0.0 0.0 0
M  V30 11 N 0.0 -0.5 0.0 0
M  V30 12 C -0.866 0.0 0.0 0
M  V30 13 C 0.0 -1.4999 0.0 0
M  V30 14 C -1.732 -0.4999 0.0 0
M  V30 15 C -0.866 -1.9999 0.0 0
M  V30 16 C -1.732 -1.4999 0.0 0
M  V30 17 N -2.598 -1.9999 0.0 0
M  V30 18 C -3.4641 -1.4999 0.0 0
M  V30 19 C -4.3301 -1.9999 0.0 0
M  V30 20 C -5.1961 -1.4999 0.0 0
M  V30 21 C -4.3301 -2.9999 0.0 0
M  V30 22 C -6.0621 -1.9999 0.0 0
M  V30 23 C -5.1961 -3.4999 0.0 0
M  V30 24 N -6.9282 -1.4999 0.0 0
M  V30 25 C -6.0621 -2.9999 0.0 0
M  V30 26 C -6.9282 -0.4999 0.0 0
M  V30 27 C -7.7942 -1.9999 0.0 0
M  V30 END ATOM
M  V30 BEGIN BOND
M  V30 1 1 1 2
M  V30 2 1 1 3
M  V30 3 2 2 4
M  V30 4 1 2 5
M  V30 5 1 4 6
M  V30 6 2 5 7
M  V30 7 2 6 8
M  V30 8 1 8 9
M  V30 9 1 9 10
M  V30 10 1 10 11
M  V30 11 1 11 12
M  V30 12 1 11 13
M  V30 13 1 12 14
M  V30 14 1 13 15
M  V30 15 1 14 16
M  V30 16 1 16 17
M  V30 17 1 17 18
M  V30 18 1 18 19
M  V30 19 2 19 20
M  V30 20 1 19 21
M  V30 21 1 20 22
M  V30 22 2 21 23
M  V30 23 1 22 24
M  V30 24 2 22 25
M  V30 25 1 24 26
M  V30 26 1 24 27
M  V30 27 1 7 8
M  V30 28 1 15 16
M  V30 29 1 23 25
M  V30 END BOND
M  V30 END CTAB
M  END
>  <Rack>
PathogenBox_PlateD

>  <Position>
B02

>  <Compound ID>
MMV011511

>  <Disease Set>
MALARIA

>  <Trivial Name>


>  <Total Molecular Weight>
367.54

>  <Molecular Weight Parent Molecule>
367.54

>  <Molecular Formula>
C23H33N3O

>  <Salt Name>


>  <Salt Coefficient>


>  <cLogP>
3.19

>  <SMILES>
COc1ccc(CCN2CCC(CC2)NCc3cccc(c3)N(C)C)cc1

$$$$
Compound 252
Actelion Java MolfileCreator 2.0

  0  0  0  0  0  0              0 V3000
M  V30 BEGIN CTAB
M  V30 COUNTS 29 32 0 0 0
M  V30 BEGIN ATOM
M  V30 1 S 6.9757 1.4067 0.0 0
M  V30 2 C 6.0621 1.0 0.0 0
M  V30 3 C 7.6448 0.6635 0.0 0
M  V30 4 C 6.1667 0.0054 0.0 0
M  V30 5 C 5.1961 1.5 0.0 0
M  V30 6 N 7.1448 -0.2024 0.0 0
M  V30 7 C 8.6393 0.7681 0.0 0
M  V30 8 N 4.3301 1.0 0.0 0
M  V30 9 C 3.4641 1.5 0.0 0
M  V30 10 C 4.3301 0.0 0.0 0
M  V30 11 C 2.598 0.9999 0.0 0
M  V30 12 C 3.4641 -0.4999 0.0 0
M  V30 13 C 2.598 0.0 0.0 0
M  V30 14 C 1.732 -0.5 0.0 0
M  V30 15 O 1.732 -1.5 0.0 0
M  V30 16 N 0.866 0.0 0.0 0
M  V30 17 C 0.0 -0.5 0.0 0
M  V30 18 C -0.866 0.0 0.0 0
M  V30 19 C 0.0 -1.4999 0.0 0
M  V30 20 C -1.732 -0.4999 0.0 0
M  V30 21 C -0.866 -1.9999 0.0 0
M  V30 22 C -1.732 -1.4999 0.0 0
M  V30 23 N -2.598 -1.9999 0.0 0
M  V30 24 N -3.5116 -1.5932 0.0 0
M  V30 25 C -2.7026 -2.9945 0.0 0
M  V30 26 C -4.1807 -2.3364 0.0 0
M  V30 27 C -3.6807 -3.2024 0.0 0
M  V30 28 C -1.9594 -3.6636 0.0 0
M  V30 29 C -5.1752 -2.2318 0.0 0
M  V30 END ATOM
M  V30 BEGIN BOND
M  V30 1 1 1 2
M  V30 2 1 1 3
M  V30 3 2 2 4
M  V30 4 1 2 5
M  V30 5 2 3 6
M  V30 6 1 3 7
M  V30 7 1 5 8
M  V30 8 1 8 9
M  V30 9 1 8 10
M  V30 10 1 9 11
M  V30 11 1 10 12
M  V30 12 1 11 13
M  V30 13 1 13 14
M  V30 14 2 14 15
M  V30 15 1 14 16
M  V30 16 1 16 17
M  V30 17 2 17 18
M  V30 18 1 17 19
M  V30 19 1 18 20
M  V30 20 2 19 21
M  V30 21 2 20 22
M  V30 22 1 22 23
M  V30 23 1 23 24
M  V30 24 1 23 25
M  V30 25 2 24 26
M  V30 26 2 25 27
M  V30 27 1 25 28
M  V30 28 1 26 29
M  V30 29 1 4 6
M  V30 30 1 12 13
M  V30 31 1 21 22
M  V30 32 1 26 27
M  V30 END BOND
M  V30 END CTAB
M  END
>  <Rack>
PathogenBox_PlateD

>  <Position>
B03

>  <Compound ID>
MMV007625

>  <Disease Set>
MALARIA

>  <Trivial Name>


>  <Total Molecular Weight>
409.56

>  <Molecular Weight Parent Molecule>
409.56

>  <Molecular Formula>
C22H27N5OS

>  <Salt Name>


>  <Salt Coefficient>


>  <cLogP>
2.29

>  <SMILES>
Cc1cc(C)n(n1)c2ccc(NC(=O)C3CCN(Cc4cnc(C)s4)CC3)cc2

$$$$
Compound 253
Actelion Java MolfileCreator 2.0

  0  0  0  0  0  0              0 V3000
M  V30 BEGIN CTAB
M  V30 COUNTS 30 33 0 0 0
M  V30 BEGIN ATOM
M  V30 1 Cl 9.8201 -5.1517 0.0 0
M  V30 2 C 9.0701 -3.8526 0.0 0
M  V30 3 C 9.8201 -2.5536 0.0 0
M  V30 4 C 7.5701 -3.8526 0.0 0
M  V30 5 C 9.0701 -1.2546 0.0 0
M  V30 6 C 6.8201 -2.5536 0.0 0
M  V30 7 C 9.8201 0.0444 0.0 0
M  V30 8 C 7.5701 -1.2546 0.0 0
M  V30 9 C 5.3529 -2.2417 0.0 0
M  V30 10 C 11.3201 0.0444 0.0 0
M  V30 11 C 9.0701 1.3434 0.0 0
M  V30 12 O 6.5664 -0.1398 0.0 0
M  V30 13 C 5.1961 -0.75 0.0 0 CFG=1
M  V30 14 C 12.0701 1.3434 0.0 0
M  V30 15 C 9.8201 2.6425 0.0 0
M  V30 16 C 3.8971 0.0 0.0 0
M  V30 17 N 11.3201 2.6425 0.0 0
M  V30 18 N 2.598 -0.75 0.0 0
M  V30 19 C 1.299 0.0 0.0 0
M  V30 20 O 1.299 1.5 0.0 0
M  V30 21 C 0.0 -0.75 0.0 0
M  V30 22 C -1.299 0.0 0.0 0
M  V30 23 C 0.0 -2.25 0.0 0
M  V30 24 C -2.598 -0.7499 0.0 0
M  V30 25 C -1.299 -2.9999 0.0 0
M  V30 26 O -3.8971 0.0 0.0 0
M  V30 27 C -2.598 -2.2499 0.0 0
M  V30 28 O -1.299 -4.4999 0.0 0
M  V30 29 C -5.1961 -0.7499 0.0 0
M  V30 30 C 0.0 -5.25 0.0 0
M  V30 END ATOM
M  V30 BEGIN BOND
M  V30 1 1 1 2
M  V30 2 2 2 3
M  V30 3 1 2 4
M  V30 4 1 3 5
M  V30 5 2 4 6
M  V30 6 1 5 7
M  V30 7 2 5 8
M  V30 8 1 6 9
M  V30 9 2 7 10
M  V30 10 1 7 11
M  V30 11 1 8 12
M  V30 12 1 13 9
M  V30 13 1 10 14
M  V30 14 2 11 15
M  V30 15 1 13 16 CFG=3
M  V30 16 2 14 17
M  V30 17 1 16 18
M  V30 18 1 18 19
M  V30 19 2 19 20
M  V30 20 1 19 21
M  V30 21 2 21 22
M  V30 22 1 21 23
M  V30 23 1 22 24
M  V30 24 2 23 25
M  V30 25 1 24 26
M  V30 26 2 24 27
M  V30 27 1 25 28
M  V30 28 1 26 29
M  V30 29 1 28 30
M  V30 30 1 6 8
M  V30 31 1 12 13
M  V30 32 1 15 17
M  V30 33 1 25 27
M  V30 END BOND
M  V30 BEGIN COLLECTION
M  V30 MDLV30/STERAC1 ATOMS=(1 13)
M  V30 END COLLECTION
M  V30 END CTAB
M  END
>  <Rack>
PathogenBox_PlateD

>  <Position>
B04

>  <Compound ID>
MMV007471

>  <Disease Set>
MALARIA

>  <Trivial Name>


>  <Total Molecular Weight>
424.88

>  <Molecular Weight Parent Molecule>
424.88

>  <Molecular Formula>
C23H21N2O4Cl

>  <Salt Name>


>  <Salt Coefficient>


>  <cLogP>
3.86

>  <SMILES>
COc1cc(OC)cc(c1)C(=O)NCC2Cc3cc(Cl)cc(c3O2)c4ccncc4

$$$$
Compound 254
Actelion Java MolfileCreator 2.0

  0  0  0  0  0  0              0 V3000
M  V30 BEGIN CTAB
M  V30 COUNTS 28 30 0 0 0
M  V30 BEGIN ATOM
M  V30 1 O 2.598 0.0 0.0 0
M  V30 2 C 1.732 -0.5 0.0 0
M  V30 3 N 0.866 0.0 0.0 0
M  V30 4 C 1.732 -1.5 0.0 0
M  V30 5 C 0.0 -0.5 0.0 0
M  V30 6 C 0.866 -1.9999 0.0 0
M  V30 7 C 2.598 -2.0 0.0 0
M  V30 8 C -0.866 0.0 0.0 0
M  V30 9 C 0.0 -1.4999 0.0 0
M  V30 10 C 0.866 -2.9999 0.0 0
M  V30 11 C 2.598 -3.0 0.0 0
M  V30 12 C -1.732 -0.4999 0.0 0
M  V30 13 C -0.866 -1.9999 0.0 0
M  V30 14 C 1.732 -3.5 0.0 0
M  V30 15 C 0.0 -3.4999 0.0 0
M  V30 16 N -1.732 -1.4999 0.0 0
M  V30 17 N -2.598 0.0 0.0 0
M  V30 18 C -2.598 1.0 0.0 0
M  V30 19 C -3.4641 -0.4999 0.0 0
M  V30 20 C -1.732 1.5 0.0 0
M  V30 21 C -3.4641 1.5 0.0 0
M  V30 22 C -1.732 2.5 0.0 0
M  V30 23 C -3.4641 2.5 0.0 0
M  V30 24 N -2.598 3.0 0.0 0
M  V30 25 C -2.598 4.0 0.0 0
M  V30 26 C -1.732 4.5 0.0 0
M  V30 27 C -0.866 4.0 0.0 0
M  V30 28 C -1.732 5.5 0.0 0
M  V30 END ATOM
M  V30 BEGIN BOND
M  V30 1 2 1 2
M  V30 2 1 2 3
M  V30 3 1 2 4
M  V30 4 1 3 5
M  V30 5 2 4 6
M  V30 6 1 4 7
M  V30 7 2 5 8
M  V30 8 1 5 9
M  V30 9 1 6 10
M  V30 10 2 7 11
M  V30 11 1 8 12
M  V30 12 2 9 13
M  V30 13 2 10 14
M  V30 14 1 10 15
M  V30 15 2 12 16
M  V30 16 1 12 17
M  V30 17 1 17 18
M  V30 18 1 17 19
M  V30 19 1 18 20
M  V30 20 1 18 21
M  V30 21 1 20 22
M  V30 22 1 21 23
M  V30 23 1 22 24
M  V30 24 1 24 25
M  V30 25 1 25 26
M  V30 26 1 26 27
M  V30 27 1 26 28
M  V30 28 1 11 14
M  V30 29 1 13 16
M  V30 30 1 23 24
M  V30 END BOND
M  V30 END CTAB
M  END
>  <Rack>
PathogenBox_PlateD

>  <Position>
B05

>  <Compound ID>
MMV024829

>  <Disease Set>
MALARIA

>  <Trivial Name>


>  <Total Molecular Weight>
380.54

>  <Molecular Weight Parent Molecule>
380.54

>  <Molecular Formula>
C23H32N4O

>  <Salt Name>


>  <Salt Coefficient>


>  <cLogP>
3.98

>  <SMILES>
CC(C)CN1CCC(CC1)N(C)c2cc(NC(=O)c3cccc(C)c3)ccn2

$$$$
Compound 255
Actelion Java MolfileCreator 2.0

  0  0  0  0  0  0              0 V3000
M  V30 BEGIN CTAB
M  V30 COUNTS 24 27 0 0 0
M  V30 BEGIN ATOM
M  V30 1 O 6.633 -5.943 0.0 0
M  V30 2 C 7.2207 -5.134 0.0 0
M  V30 3 C 5.6384 -5.8385 0.0 0
M  V30 4 C 6.814 -4.2205 0.0 0
M  V30 5 C 5.2317 -4.9249 0.0 0
M  V30 6 N 5.8195 -4.1159 0.0 0
M  V30 7 C 5.4128 -3.2024 0.0 0
M  V30 8 N 5.9128 -2.3364 0.0 0
M  V30 9 C 4.4346 -2.9945 0.0 0
M  V30 10 N 5.2436 -1.5932 0.0 0
M  V30 11 C 4.3301 -2.0 0.0 0
M  V30 12 C 3.4641 -1.4999 0.0 0
M  V30 13 C 3.4641 -0.5 0.0 0
M  V30 14 C 2.598 -1.9999 0.0 0
M  V30 15 C 2.598 0.0 0.0 0
M  V30 16 C 1.732 -1.5 0.0 0
M  V30 17 C 1.732 -0.5 0.0 0
M  V30 18 O 0.866 0.0 0.0 0
M  V30 19 C 0.0 -0.5 0.0 0
M  V30 20 C -0.866 0.0 0.0 0
M  V30 21 C 0.0 -1.4999 0.0 0
M  V30 22 C -1.732 -0.4999 0.0 0
M  V30 23 C -0.866 -1.9999 0.0 0
M  V30 24 C -1.732 -1.4999 0.0 0
M  V30 END ATOM
M  V30 BEGIN BOND
M  V30 1 1 1 2
M  V30 2 1 1 3
M  V30 3 1 2 4
M  V30 4 1 3 5
M  V30 5 1 4 6
M  V30 6 1 6 7
M  V30 7 1 7 8
M  V30 8 2 7 9
M  V30 9 1 8 10
M  V30 10 1 9 11
M  V30 11 1 11 12
M  V30 12 2 12 13
M  V30 13 1 12 14
M  V30 14 1 13 15
M  V30 15 2 14 16
M  V30 16 2 15 17
M  V30 17 1 17 18
M  V30 18 1 18 19
M  V30 19 2 19 20
M  V30 20 1 19 21
M  V30 21 1 20 22
M  V30 22 2 21 23
M  V30 23 2 22 24
M  V30 24 1 5 6
M  V30 25 2 10 11
M  V30 26 1 16 17
M  V30 27 1 23 24
M  V30 END BOND
M  V30 END CTAB
M  END
>  <Rack>
PathogenBox_PlateD

>  <Position>
B06

>  <Compound ID>
MMV045105

>  <Disease Set>
KINETOPLASTIDS

>  <Trivial Name>


>  <Total Molecular Weight>
321.38

>  <Molecular Weight Parent Molecule>
321.38

>  <Molecular Formula>
C19H19N3O2

>  <Salt Name>


>  <Salt Coefficient>


>  <cLogP>
2.72

>  <SMILES>
C1CN(CCO1)c2cc(n[nH]2)c3ccc(Oc4ccccc4)cc3

$$$$
Compound 256
Actelion Java MolfileCreator 2.0

  0  0  0  0  0  0              0 V3000
M  V30 BEGIN CTAB
M  V30 COUNTS 32 35 0 0 0
M  V30 BEGIN ATOM
M  V30 1 S 3.8971 0.0 0.0 0
M  V30 2 O 4.6471 1.299 0.0 0
M  V30 3 O 3.1471 1.299 0.0 0
M  V30 4 N 2.598 -0.75 0.0 0
M  V30 5 C 5.1961 -0.75 0.0 0
M  V30 6 C 1.299 0.0 0.0 0
M  V30 7 C 5.1961 -2.25 0.0 0
M  V30 8 C 6.4951 0.0 0.0 0
M  V30 9 C 0.0 -0.75 0.0 0
M  V30 10 C 6.4951 -3.0 0.0 0
M  V30 11 C 7.7942 -0.75 0.0 0
M  V30 12 C -1.299 0.0 0.0 0
M  V30 13 C 0.0 -2.25 0.0 0
M  V30 14 C 7.7942 -2.25 0.0 0
M  V30 15 C -2.598 -0.75 0.0 0
M  V30 16 C -1.299 -3.0 0.0 0
M  V30 17 C 9.0932 -3.0 0.0 0
M  V30 18 C -2.598 -2.25 0.0 0
M  V30 19 C 9.0932 -4.5 0.0 0
M  V30 20 C 10.3923 -2.25 0.0 0
M  V30 21 C 10.3923 -5.25 0.0 0
M  V30 22 C 11.6913 -3.0 0.0 0
M  V30 23 C 11.6913 -4.5 0.0 0
M  V30 24 C 10.3923 -6.75 0.0 0
M  V30 25 N 9.0932 -7.5 0.0 0
M  V30 26 C 9.0932 -9.0 0.0 0
M  V30 27 C 7.7942 -9.75 0.0 0
M  V30 28 C 10.3923 -9.75 0.0 0
M  V30 29 C 7.7942 -11.25 0.0 0
M  V30 30 C 10.3923 -11.25 0.0 0
M  V30 31 N 9.0932 -12.0 0.0 0
M  V30 32 C 9.0932 -13.5 0.0 0
M  V30 END ATOM
M  V30 BEGIN BOND
M  V30 1 2 1 2
M  V30 2 2 1 3
M  V30 3 1 1 4
M  V30 4 1 1 5
M  V30 5 1 4 6
M  V30 6 2 5 7
M  V30 7 1 5 8
M  V30 8 1 6 9
M  V30 9 1 7 10
M  V30 10 2 8 11
M  V30 11 2 9 12
M  V30 12 1 9 13
M  V30 13 2 10 14
M  V30 14 1 12 15
M  V30 15 2 13 16
M  V30 16 1 14 17
M  V30 17 2 15 18
M  V30 18 2 17 19
M  V30 19 1 17 20
M  V30 20 1 19 21
M  V30 21 2 20 22
M  V30 22 2 21 23
M  V30 23 1 21 24
M  V30 24 1 24 25
M  V30 25 1 25 26
M  V30 26 1 26 27
M  V30 27 1 26 28
M  V30 28 1 27 29
M  V30 29 1 28 30
M  V30 30 1 29 31
M  V30 31 1 31 32
M  V30 32 1 11 14
M  V30 33 1 16 18
M  V30 34 1 22 23
M  V30 35 1 30 31
M  V30 END BOND
M  V30 END CTAB
M  END
>  <Rack>
PathogenBox_PlateD

>  <Position>
B07

>  <Compound ID>
MMV022029

>  <Disease Set>
MALARIA

>  <Trivial Name>


>  <Total Molecular Weight>
449.62

>  <Molecular Weight Parent Molecule>
449.62

>  <Molecular Formula>
C26H31N3O2S

>  <Salt Name>


>  <Salt Coefficient>


>  <cLogP>
3.72

>  <SMILES>
CN1CCC(CC1)NCc2cccc(c2)c3ccc(cc3)S(=O)(=O)NCc4ccccc4

$$$$
Compound 257
Actelion Java MolfileCreator 2.0

  0  0  0  0  0  0              0 V3000
M  V30 BEGIN CTAB
M  V30 COUNTS 28 30 0 0 0
M  V30 BEGIN ATOM
M  V30 1 F 8.6602 1.4999 0.0 0
M  V30 2 C 7.7942 0.9999 0.0 0
M  V30 3 C 6.9282 1.4999 0.0 0
M  V30 4 C 7.7942 0.0 0.0 0
M  V30 5 C 6.0621 0.9999 0.0 0
M  V30 6 C 6.9282 -0.5 0.0 0
M  V30 7 C 6.0621 0.0 0.0 0
M  V30 8 C 5.1961 -0.5 0.0 0
M  V30 9 O 5.1961 -1.4999 0.0 0
M  V30 10 N 4.3301 0.0 0.0 0
M  V30 11 C 4.3301 1.0 0.0 0
M  V30 12 C 3.4641 -0.5 0.0 0
M  V30 13 C 5.1961 1.4999 0.0 0
M  V30 14 C 3.4641 1.5 0.0 0
M  V30 15 C 2.598 0.0 0.0 0
M  V30 16 C 5.1961 2.4999 0.0 0
M  V30 17 C 3.4641 2.5 0.0 0
M  V30 18 N 1.732 -0.5 0.0 0
M  V30 19 C 4.3301 2.9999 0.0 0
M  V30 20 C 1.732 -1.5 0.0 0
M  V30 21 C 0.866 0.0 0.0 0
M  V30 22 C 0.866 -1.9999 0.0 0
M  V30 23 C 2.598 -2.0 0.0 0
M  V30 24 O 0.866 1.0 0.0 0
M  V30 25 C 0.0 -0.5 0.0 0
M  V30 26 C 0.866 -2.9999 0.0 0
M  V30 27 C 2.598 -3.0 0.0 0
M  V30 28 C 1.732 -3.5 0.0 0
M  V30 END ATOM
M  V30 BEGIN BOND
M  V30 1 1 1 2
M  V30 2 2 2 3
M  V30 3 1 2 4
M  V30 4 1 3 5
M  V30 5 2 4 6
M  V30 6 2 5 7
M  V30 7 1 7 8
M  V30 8 2 8 9
M  V30 9 1 8 10
M  V30 10 1 10 11
M  V30 11 1 10 12
M  V30 12 2 11 13
M  V30 13 1 11 14
M  V30 14 1 12 15
M  V30 15 1 13 16
M  V30 16 2 14 17
M  V30 17 1 15 18
M  V30 18 2 16 19
M  V30 19 1 18 20
M  V30 20 1 18 21
M  V30 21 2 20 22
M  V30 22 1 20 23
M  V30 23 2 21 24
M  V30 24 1 21 25
M  V30 25 1 22 26
M  V30 26 2 23 27
M  V30 27 2 26 28
M  V30 28 1 6 7
M  V30 29 1 17 19
M  V30 30 1 27 28
M  V30 END BOND
M  V30 END CTAB
M  END
>  <Rack>
PathogenBox_PlateD

>  <Position>
B08

>  <Compound ID>
MMV676064

>  <Disease Set>
ONCHOCERCIASIS

>  <Trivial Name>


>  <Total Molecular Weight>
376.42

>  <Molecular Weight Parent Molecule>
376.42

>  <Molecular Formula>
C23H21N2O2F

>  <Salt Name>


>  <Salt Coefficient>


>  <cLogP>
4.61

>  <SMILES>
CC(=O)N(CCN(C(=O)c1ccc(F)cc1)c2ccccc2)c3ccccc3

$$$$
Compound 258
Actelion Java MolfileCreator 2.0

  0  0  0  0  0  0              0 V3000
M  V30 BEGIN CTAB
M  V30 COUNTS 32 35 0 0 0
M  V30 BEGIN ATOM
M  V30 1 Cl 2.598 2.25 0.0 0
M  V30 2 C 3.8971 1.5 0.0 0
M  V30 3 C 3.8971 0.0 0.0 0
M  V30 4 C 5.1961 2.25 0.0 0
M  V30 5 S 2.598 -0.75 0.0 0
M  V30 6 C 5.1961 -0.75 0.0 0
M  V30 7 C 6.4951 1.5 0.0 0
M  V30 8 O 1.848 -2.049 0.0 0
M  V30 9 O 3.348 -2.049 0.0 0
M  V30 10 N 1.299 0.0 0.0 0
M  V30 11 Cl 5.1961 -2.25 0.0 0
M  V30 12 C 6.4951 0.0 0.0 0
M  V30 13 C 7.7942 2.25 0.0 0
M  V30 14 C 0.0 -0.75 0.0 0
M  V30 15 C 9.0932 1.5 0.0 0
M  V30 16 C 7.7942 3.75 0.0 0
M  V30 17 C -1.3703 -0.1398 0.0 0
M  V30 18 C -0.1567 -2.2417 0.0 0
M  V30 19 C 10.3923 2.25 0.0 0
M  V30 20 C 9.0932 4.5 0.0 0
M  V30 21 N -2.374 -1.2546 0.0 0
M  V30 22 C -1.6821 1.3273 0.0 0
M  V30 23 N -1.624 -2.5536 0.0 0
M  V30 24 C 0.9579 -3.2454 0.0 0
M  V30 25 N 10.3923 3.75 0.0 0
M  V30 26 N 11.6913 1.5 0.0 0
M  V30 27 C -2.2341 -3.9239 0.0 0
M  V30 28 C 11.6913 0.0 0.0 0
M  V30 29 C 12.9903 2.25 0.0 0
M  V30 30 C 12.9903 -0.75 0.0 0
M  V30 31 C 14.2894 1.5 0.0 0
M  V30 32 N 14.2894 0.0 0.0 0
M  V30 END ATOM
M  V30 BEGIN BOND
M  V30 1 1 1 2
M  V30 2 2 2 3
M  V30 3 1 2 4
M  V30 4 1 3 5
M  V30 5 1 3 6
M  V30 6 2 4 7
M  V30 7 2 5 8
M  V30 8 2 5 9
M  V30 9 1 5 10
M  V30 10 1 6 11
M  V30 11 2 6 12
M  V30 12 1 7 13
M  V30 13 1 10 14
M  V30 14 2 13 15
M  V30 15 1 13 16
M  V30 16 1 14 17
M  V30 17 2 14 18
M  V30 18 1 15 19
M  V30 19 2 16 20
M  V30 20 2 17 21
M  V30 21 1 17 22
M  V30 22 1 18 23
M  V30 23 1 18 24
M  V30 24 2 19 25
M  V30 25 1 19 26
M  V30 26 1 23 27
M  V30 27 1 26 28
M  V30 28 1 26 29
M  V30 29 1 28 30
M  V30 30 1 29 31
M  V30 31 1 30 32
M  V30 32 1 7 12
M  V30 33 1 20 25
M  V30 34 1 21 23
M  V30 35 1 31 32
M  V30 END BOND
M  V30 END CTAB
M  END
>  <Rack>
PathogenBox_PlateD

>  <Position>
B09

>  <Compound ID>
MMV688180

>  <Disease Set>
KINETOPLASTIDS

>  <Trivial Name>


>  <Total Molecular Weight>
495.43

>  <Molecular Weight Parent Molecule>
495.43

>  <Molecular Formula>
C21H24N6O2Cl2S

>  <Salt Name>


>  <Salt Coefficient>


>  <cLogP>
2.56

>  <SMILES>
Cc1nn(C)c(C)c1NS(=O)(=O)c2c(Cl)cc(cc2Cl)c3ccnc(c3)N4CCNCC4

$$$$
Compound 259
Actelion Java MolfileCreator 2.0

  0  0  0  0  0  0              0 V3000
M  V30 BEGIN CTAB
M  V30 COUNTS 31 35 0 0 0
M  V30 BEGIN ATOM
M  V30 1 S 3.5116 -0.4067 0.0 0
M  V30 2 C 4.1807 0.3364 0.0 0
M  V30 3 C 2.598 0.0 0.0 0
M  V30 4 C 5.1752 0.2318 0.0 0
M  V30 5 C 3.6807 1.2024 0.0 0
M  V30 6 C 1.732 -0.5 0.0 0
M  V30 7 C 2.7026 0.9945 0.0 0
M  V30 8 C 5.582 -0.6816 0.0 0
M  V30 9 C 5.763 1.0408 0.0 0
M  V30 10 O 1.732 -1.5 0.0 0
M  V30 11 N 0.866 0.0 0.0 0
M  V30 12 O 4.9942 -1.4906 0.0 0
M  V30 13 C 6.5765 -0.7861 0.0 0
M  V30 14 C 6.7575 0.9363 0.0 0
M  V30 15 C 0.0 -0.5 0.0 0
M  V30 16 C 5.4009 -2.4042 0.0 0
M  V30 17 C 7.1643 0.0228 0.0 0
M  V30 18 C 7.3453 1.7453 0.0 0
M  V30 19 C -0.866 0.0 0.0 0
M  V30 20 C 0.0 -1.4999 0.0 0
M  V30 21 C 4.8131 -3.2132 0.0 0
M  V30 22 C 6.3954 -2.5087 0.0 0
M  V30 23 C 8.1588 -0.0817 0.0 0
M  V30 24 C 8.3398 1.6408 0.0 0
M  V30 25 C -1.732 -0.4999 0.0 0
M  V30 26 C -0.866 -1.9999 0.0 0
M  V30 27 C 5.2199 -4.1267 0.0 0
M  V30 28 C 6.8022 -3.4223 0.0 0
M  V30 29 N 8.7466 0.7273 0.0 0
M  V30 30 C -1.732 -1.4999 0.0 0
M  V30 31 N 6.2144 -4.2313 0.0 0
M  V30 END ATOM
M  V30 BEGIN BOND
M  V30 1 1 1 2
M  V30 2 1 1 3
M  V30 3 1 2 4
M  V30 4 2 2 5
M  V30 5 1 3 6
M  V30 6 2 3 7
M  V30 7 1 4 8
M  V30 8 2 4 9
M  V30 9 2 6 10
M  V30 10 1 6 11
M  V30 11 1 8 12
M  V30 12 2 8 13
M  V30 13 1 9 14
M  V30 14 1 11 15
M  V30 15 1 12 16
M  V30 16 1 13 17
M  V30 17 2 14 18
M  V30 18 2 15 19
M  V30 19 1 15 20
M  V30 20 1 16 21
M  V30 21 1 16 22
M  V30 22 2 17 23
M  V30 23 1 18 24
M  V30 24 1 19 25
M  V30 25 2 20 26
M  V30 26 1 21 27
M  V30 27 1 22 28
M  V30 28 1 23 29
M  V30 29 2 25 30
M  V30 30 1 27 31
M  V30 31 1 5 7
M  V30 32 1 14 17
M  V30 33 2 24 29
M  V30 34 1 26 30
M  V30 35 1 28 31
M  V30 END BOND
M  V30 END CTAB
M  END
>  <Rack>
PathogenBox_PlateD

>  <Position>
B10

>  <Compound ID>
MMV024035

>  <Disease Set>
MALARIA

>  <Trivial Name>


>  <Total Molecular Weight>
502.46

>  <Molecular Weight Parent Molecule>
429.54

>  <Molecular Formula>
C25H23N3O2S

>  <Salt Name>
Hydrochloride

>  <Salt Coefficient>
2

>  <cLogP>
4.94

>  <SMILES>
O=C(Nc1ccccc1)c2ccc(s2)c3cc4ccncc4cc3OC5CCNCC5

$$$$
Compound 260
Actelion Java MolfileCreator 2.0

  0  0  0  0  0  0              0 V3000
M  V30 BEGIN CTAB
M  V30 COUNTS 26 30 0 0 0
M  V30 BEGIN ATOM
M  V30 1 O 4.2089 1.4672 0.0 0
M  V30 2 C 3.8971 0.0 0.0 0
M  V30 3 C 5.7007 1.624 0.0 0
M  V30 4 C 2.598 -0.75 0.0 0
M  V30 5 C 5.1961 -0.7499 0.0 0
M  V30 6 O 6.3108 0.2536 0.0 0
M  V30 7 O 1.299 0.0 0.0 0
M  V30 8 C 2.598 -2.25 0.0 0
M  V30 9 C 5.1961 -2.2499 0.0 0
M  V30 10 C 0.0 -0.75 0.0 0
M  V30 11 C 3.8971 -3.0 0.0 0
M  V30 12 C 3.8971 -4.5 0.0 0
M  V30 13 N 5.1961 -5.25 0.0 0
M  V30 14 C 5.1961 -6.7499 0.0 0
M  V30 15 C 6.4951 -4.4999 0.0 0
M  V30 16 C 6.4951 -7.5 0.0 0
M  V30 17 C 7.7942 -5.2499 0.0 0
M  V30 18 C 7.7942 -6.7499 0.0 0
M  V30 19 C 7.951 -8.2417 0.0 0
M  V30 20 C 9.1645 -6.1398 0.0 0
M  V30 21 C 9.4182 -8.5536 0.0 0
M  V30 22 C 6.9473 -9.3565 0.0 0
M  V30 23 C 10.1682 -7.2546 0.0 0
M  V30 24 C 9.8817 -9.9802 0.0 0
M  V30 25 C 7.4108 -10.783 0.0 0
M  V30 26 C 8.878 -11.0949 0.0 0
M  V30 END ATOM
M  V30 BEGIN BOND
M  V30 1 1 1 2
M  V30 2 1 1 3
M  V30 3 2 2 4
M  V30 4 1 2 5
M  V30 5 1 3 6
M  V30 6 1 4 7
M  V30 7 1 4 8
M  V30 8 2 5 9
M  V30 9 1 7 10
M  V30 10 2 8 11
M  V30 11 1 11 12
M  V30 12 1 12 13
M  V30 13 1 13 14
M  V30 14 1 13 15
M  V30 15 1 14 16
M  V30 16 1 15 17
M  V30 17 1 16 18
M  V30 18 1 18 19
M  V30 19 1 18 20
M  V30 20 2 19 21
M  V30 21 1 19 22
M  V30 22 2 20 23
M  V30 23 1 21 24
M  V30 24 2 22 25
M  V30 25 2 24 26
M  V30 26 1 5 6
M  V30 27 1 9 11
M  V30 28 1 17 18
M  V30 29 1 21 23
M  V30 30 1 25 26
M  V30 END BOND
M  V30 END CTAB
M  END
>  <Rack>
PathogenBox_PlateD

>  <Position>
B11

>  <Compound ID>
MMV688941

>  <Disease Set>
TUBERCULOSIS

>  <Trivial Name>


>  <Total Molecular Weight>
349.42

>  <Molecular Weight Parent Molecule>
349.42

>  <Molecular Formula>
C22H23NO3

>  <Salt Name>


>  <Salt Coefficient>


>  <cLogP>
3.90

>  <SMILES>
COc1cc(CN2CCC3(CC2)C=Cc4ccccc34)cc5OCOc15

$$$$
Compound 261
Actelion Java MolfileCreator 2.0

  0  0  0  0  0  0              0 V3000
M  V30 BEGIN CTAB
M  V30 COUNTS 28 30 0 0 0
M  V30 BEGIN ATOM
M  V30 1 S 7.7942 2.25 0.0 0
M  V30 2 O 8.5442 0.9509 0.0 0
M  V30 3 O 9.2942 2.25 0.0 0
M  V30 4 N 6.4952 1.5 0.0 0
M  V30 5 C 7.7942 3.75 0.0 0
M  V30 6 C 5.1961 2.25 0.0 0
M  V30 7 C 6.4952 0.0 0.0 0
M  V30 8 C 9.0932 4.5 0.0 0
M  V30 9 C 6.4952 4.5 0.0 0
M  V30 10 C 3.8971 1.5 0.0 0
M  V30 11 C 5.1961 -0.75 0.0 0
M  V30 12 C 9.0932 6.0 0.0 0
M  V30 13 C 6.4952 6.0 0.0 0
M  V30 14 N 3.8971 0.0 0.0 0
M  V30 15 C 7.7942 6.75 0.0 0
M  V30 16 C 2.598 -0.75 0.0 0 CFG=2
M  V30 17 C 7.7942 8.25 0.0 0
M  V30 18 C 1.299 0.0 0.0 0
M  V30 19 C 2.598 -2.25 0.0 0
M  V30 20 C 6.2942 8.25 0.0 0
M  V30 21 C 7.7942 9.75 0.0 0
M  V30 22 C 9.2942 8.25 0.0 0
M  V30 23 O 1.299 1.5 0.0 0
M  V30 24 N 0.0 -0.75 0.0 0
M  V30 25 C -1.3703 -0.1398 0.0 0
M  V30 26 C -0.1567 -2.2417 0.0 0
M  V30 27 C -2.374 -1.2546 0.0 0
M  V30 28 C -1.624 -2.5536 0.0 0
M  V30 END ATOM
M  V30 BEGIN BOND
M  V30 1 2 1 2
M  V30 2 2 1 3
M  V30 3 1 1 4
M  V30 4 1 1 5
M  V30 5 1 4 6
M  V30 6 1 4 7
M  V30 7 2 5 8
M  V30 8 1 5 9
M  V30 9 1 6 10
M  V30 10 1 7 11
M  V30 11 1 8 12
M  V30 12 2 9 13
M  V30 13 1 10 14
M  V30 14 2 12 15
M  V30 15 1 16 14 CFG=1
M  V30 16 1 15 17
M  V30 17 1 16 18
M  V30 18 1 16 19
M  V30 19 1 17 20
M  V30 20 1 17 21
M  V30 21 1 17 22
M  V30 22 2 18 23
M  V30 23 1 18 24
M  V30 24 1 24 25
M  V30 25 1 24 26
M  V30 26 1 25 27
M  V30 27 1 26 28
M  V30 28 1 11 14
M  V30 29 1 13 15
M  V30 30 1 27 28
M  V30 END BOND
M  V30 BEGIN COLLECTION
M  V30 MDLV30/STERAC1 ATOMS=(1 16)
M  V30 END COLLECTION
M  V30 END CTAB
M  END
>  <Rack>
PathogenBox_PlateD

>  <Position>
C02

>  <Compound ID>
MMV020291

>  <Disease Set>
MALARIA

>  <Trivial Name>


>  <Total Molecular Weight>
407.58

>  <Molecular Weight Parent Molecule>
407.58

>  <Molecular Formula>
C21H33N3O3S

>  <Salt Name>


>  <Salt Coefficient>


>  <cLogP>
2.89

>  <SMILES>
CC(N1CCN(CC1)S(=O)(=O)c2ccc(cc2)C(C)(C)C)C(=O)N3CCCC3

$$$$
Compound 262
Actelion Java MolfileCreator 2.0

  0  0  0  0  0  0              0 V3000
M  V30 BEGIN CTAB
M  V30 COUNTS 27 29 0 0 0
M  V30 BEGIN ATOM
M  V30 1 Cl 10.3923 2.25 0.0 0
M  V30 2 C 9.0932 1.5 0.0 0
M  V30 3 C 7.7942 2.25 0.0 0
M  V30 4 C 9.0932 0.0 0.0 0
M  V30 5 S 7.7942 3.75 0.0 0
M  V30 6 C 6.4952 1.5 0.0 0
M  V30 7 C 7.7942 -0.75 0.0 0
M  V30 8 O 9.2942 3.7499 0.0 0
M  V30 9 O 8.5442 5.049 0.0 0
M  V30 10 N 6.4952 4.5 0.0 0
M  V30 11 C 6.4952 0.0 0.0 0
M  V30 12 C 7.7942 -2.25 0.0 0
M  V30 13 C 6.3384 5.9917 0.0 0
M  V30 14 C 5.1248 3.8899 0.0 0
M  V30 15 O 5.1961 -0.75 0.0 0
M  V30 16 C 4.8711 6.3036 0.0 0
M  V30 17 C 4.1211 5.0046 0.0 0
M  V30 18 C 3.8971 0.0 0.0 0
M  V30 19 C 2.598 -0.75 0.0 0
M  V30 20 O 2.598 -2.25 0.0 0
M  V30 21 N 1.299 0.0 0.0 0
M  V30 22 C 0.0 -0.75 0.0 0
M  V30 23 C -1.299 0.0 0.0 0
M  V30 24 C 0.0 -2.25 0.0 0
M  V30 25 C -2.598 -0.75 0.0 0
M  V30 26 C -1.299 -3.0 0.0 0
M  V30 27 C -2.598 -2.25 0.0 0
M  V30 END ATOM
M  V30 BEGIN BOND
M  V30 1 1 1 2
M  V30 2 2 2 3
M  V30 3 1 2 4
M  V30 4 1 3 5
M  V30 5 1 3 6
M  V30 6 2 4 7
M  V30 7 2 5 8
M  V30 8 2 5 9
M  V30 9 1 5 10
M  V30 10 2 6 11
M  V30 11 1 7 12
M  V30 12 1 10 13
M  V30 13 1 10 14
M  V30 14 1 11 15
M  V30 15 1 13 16
M  V30 16 1 14 17
M  V30 17 1 15 18
M  V30 18 1 18 19
M  V30 19 2 19 20
M  V30 20 1 19 21
M  V30 21 1 21 22
M  V30 22 1 22 23
M  V30 23 1 22 24
M  V30 24 1 23 25
M  V30 25 1 24 26
M  V30 26 1 25 27
M  V30 27 1 7 11
M  V30 28 1 16 17
M  V30 29 1 26 27
M  V30 END BOND
M  V30 END CTAB
M  END
>  <Rack>
PathogenBox_PlateD

>  <Position>
C03

>  <Compound ID>
MMV006833

>  <Disease Set>
MALARIA

>  <Trivial Name>


>  <Total Molecular Weight>
414.95

>  <Molecular Weight Parent Molecule>
414.95

>  <Molecular Formula>
C19H27N2O4ClS

>  <Salt Name>


>  <Salt Coefficient>


>  <cLogP>
3.04

>  <SMILES>
Cc1cc(Cl)c(cc1OCC(=O)NC2CCCCC2)S(=O)(=O)N3CCCC3

$$$$
Compound 263
Actelion Java MolfileCreator 2.0

  0  0  0  0  0  0              0 V3000
M  V30 BEGIN CTAB
M  V30 COUNTS 28 31 0 0 0
M  V30 BEGIN ATOM
M  V30 1 O 2.598 0.0 0.0 0
M  V30 2 C 3.4641 -0.5 0.0 0
M  V30 3 N 4.3301 0.0 0.0 0
M  V30 4 C 3.4641 -1.5 0.0 0
M  V30 5 C 5.1961 -0.4999 0.0 0
M  V30 6 C 2.598 -1.9999 0.0 0
M  V30 7 C 4.3301 -2.0 0.0 0
M  V30 8 C 6.0621 0.0 0.0 0
M  V30 9 N 2.598 -2.9999 0.0 0
M  V30 10 N 1.732 -1.4999 0.0 0
M  V30 11 C 4.3301 -3.0 0.0 0
M  V30 12 C 6.9282 -0.5 0.0 0
M  V30 13 C 3.4641 -3.5 0.0 0
M  V30 14 C 1.732 -0.4999 0.0 0
M  V30 15 C 5.1961 -3.5 0.0 0
M  V30 16 C 7.7942 0.0 0.0 0
M  V30 17 C 6.9282 -1.5 0.0 0
M  V30 18 C 0.866 0.0 0.0 0
M  V30 19 C 5.1961 -4.5 0.0 0
M  V30 20 C 6.0621 -3.0 0.0 0
M  V30 21 C 8.6602 -0.4999 0.0 0
M  V30 22 C 7.7942 -1.9999 0.0 0
M  V30 23 C 0.366 0.866 0.0 0
M  V30 24 C -0.1339 0.0 0.0 0
M  V30 25 N 6.0621 -5.0 0.0 0
M  V30 26 C 6.9282 -3.5 0.0 0
M  V30 27 C 8.6602 -1.5 0.0 0
M  V30 28 C 6.9282 -4.5 0.0 0
M  V30 END ATOM
M  V30 BEGIN BOND
M  V30 1 2 1 2
M  V30 2 1 2 3
M  V30 3 1 2 4
M  V30 4 1 3 5
M  V30 5 2 4 6
M  V30 6 1 4 7
M  V30 7 1 5 8
M  V30 8 1 6 9
M  V30 9 1 6 10
M  V30 10 2 7 11
M  V30 11 1 8 12
M  V30 12 2 9 13
M  V30 13 1 10 14
M  V30 14 1 11 15
M  V30 15 2 12 16
M  V30 16 1 12 17
M  V30 17 1 14 18
M  V30 18 2 15 19
M  V30 19 1 15 20
M  V30 20 1 16 21
M  V30 21 2 17 22
M  V30 22 1 18 23
M  V30 23 1 18 24
M  V30 24 1 19 25
M  V30 25 2 20 26
M  V30 26 2 21 27
M  V30 27 2 25 28
M  V30 28 1 11 13
M  V30 29 1 22 27
M  V30 30 1 23 24
M  V30 31 1 26 28
M  V30 END BOND
M  V30 END CTAB
M  END
>  <Rack>
PathogenBox_PlateD

>  <Position>
C04

>  <Compound ID>
MMV026490

>  <Disease Set>
MALARIA

>  <Trivial Name>


>  <Total Molecular Weight>
372.47

>  <Molecular Weight Parent Molecule>
372.47

>  <Molecular Formula>
C23H24N4O

>  <Salt Name>


>  <Salt Coefficient>


>  <cLogP>
3.33

>  <SMILES>
O=C(NCCc1ccccc1)c2cc(cnc2NCC3CC3)c4cccnc4

$$$$
Compound 264
Actelion Java MolfileCreator 2.0

  0  0  0  0  0  0              0 V3000
M  V30 BEGIN CTAB
M  V30 COUNTS 36 41 0 0 0
M  V30 BEGIN ATOM
M  V30 1 S 1.299 0.0 0.0 0
M  V30 2 O 2.049 1.299 0.0 0
M  V30 3 O 0.549 1.299 0.0 0
M  V30 4 N 2.598 -0.75 0.0 0
M  V30 5 C 0.0 -0.75 0.0 0
M  V30 6 C 2.598 -2.25 0.0 0
M  V30 7 C 3.8971 0.0 0.0 0
M  V30 8 C -1.299 0.0 0.0 0
M  V30 9 C 0.0 -2.25 0.0 0
M  V30 10 C 3.8971 -3.0 0.0 0
M  V30 11 C 5.1961 -0.75 0.0 0
M  V30 12 C -2.598 -0.75 0.0 0
M  V30 13 C -1.299 -3.0 0.0 0
M  V30 14 N 5.1961 -2.25 0.0 0
M  V30 15 C -2.598 -2.25 0.0 0
M  V30 16 C 6.4951 -3.0 0.0 0
M  V30 17 C -3.8971 -3.0 0.0 0
M  V30 18 C -5.1961 -2.25 0.0 0
M  V30 19 C -3.8971 -4.5 0.0 0
M  V30 20 C -6.4951 -3.0 0.0 0
M  V30 21 C -5.1961 -5.25 0.0 0
M  V30 22 N -7.7942 -2.25 0.0 0
M  V30 23 C -6.4951 -4.5 0.0 0
M  V30 24 C -9.0932 -3.0 0.0 0
M  V30 25 C -7.7942 -5.25 0.0 0
M  V30 26 C -9.0932 -4.5 0.0 0
M  V30 27 N -7.7942 -6.75 0.0 0
M  V30 28 C -6.4951 -7.5 0.0 0
M  V30 29 C -6.4951 -9.0 0.0 0
M  V30 30 C -5.1961 -6.75 0.0 0
M  V30 31 C -5.1961 -9.75 0.0 0
M  V30 32 C -3.8971 -7.5 0.0 0
M  V30 33 N -4.8842 -11.2172 0.0 0
M  V30 34 C -3.8971 -9.0 0.0 0
M  V30 35 N -3.3925 -11.374 0.0 0
M  V30 36 N -2.7824 -10.0037 0.0 0
M  V30 END ATOM
M  V30 BEGIN BOND
M  V30 1 2 1 2
M  V30 2 2 1 3
M  V30 3 1 1 4
M  V30 4 1 1 5
M  V30 5 1 4 6
M  V30 6 1 4 7
M  V30 7 2 5 8
M  V30 8 1 5 9
M  V30 9 1 6 10
M  V30 10 1 7 11
M  V30 11 1 8 12
M  V30 12 2 9 13
M  V30 13 1 10 14
M  V30 14 2 12 15
M  V30 15 1 14 16
M  V30 16 1 15 17
M  V30 17 2 17 18
M  V30 18 1 17 19
M  V30 19 1 18 20
M  V30 20 2 19 21
M  V30 21 2 20 22
M  V30 22 1 20 23
M  V30 23 1 22 24
M  V30 24 2 23 25
M  V30 25 2 24 26
M  V30 26 1 25 27
M  V30 27 1 27 28
M  V30 28 2 28 29
M  V30 29 1 28 30
M  V30 30 1 29 31
M  V30 31 2 30 32
M  V30 32 1 31 33
M  V30 33 2 31 34
M  V30 34 1 33 35
M  V30 35 1 34 36
M  V30 36 1 11 14
M  V30 37 1 13 15
M  V30 38 1 21 23
M  V30 39 1 25 26
M  V30 40 1 32 34
M  V30 41 2 35 36
M  V30 END BOND
M  V30 END CTAB
M  END
>  <Rack>
PathogenBox_PlateD

>  <Position>
C05

>  <Compound ID>
MMV687246

>  <Disease Set>
MALARIA

>  <Trivial Name>


>  <Total Molecular Weight>
499.59

>  <Molecular Weight Parent Molecule>
499.59

>  <Molecular Formula>
C26H25N7O2S

>  <Salt Name>


>  <Salt Coefficient>


>  <cLogP>
3.30

>  <SMILES>
CN1CCN(CC1)S(=O)(=O)c2ccc(cc2)c3ccc4c(Nc5ccc6nn[nH]c6c5)ccnc4c3

$$$$
Compound 265
Actelion Java MolfileCreator 2.0

  0  0  0  0  0  0              0 V3000
M  V30 BEGIN CTAB
M  V30 COUNTS 27 30 0 0 0
M  V30 BEGIN ATOM
M  V30 1 O -2.3506 0.9703 0.0 0
M  V30 2 C -1.3506 0.9703 0.0 0
M  V30 3 O -0.8506 0.1043 0.0 0
M  V30 4 C -0.8506 1.8364 0.0 0
M  V30 5 C 0.1493 1.8364 0.0 0
M  V30 6 C -1.3506 2.7024 0.0 0
M  V30 7 N 0.8185 1.0932 0.0 0
M  V30 8 C 0.6493 2.7024 0.0 0
M  V30 9 C -0.8506 3.5684 0.0 0
M  V30 10 C 1.732 1.5 0.0 0
M  V30 11 O 1.6275 2.4945 0.0 0
M  V30 12 C 0.1493 3.5684 0.0 0
M  V30 13 C 2.598 1.0 0.0 0
M  V30 14 C 2.598 0.0 0.0 0
M  V30 15 C 3.4641 1.4999 0.0 0
M  V30 16 N 1.732 -0.5 0.0 0
M  V30 17 C 3.4641 -0.5 0.0 0
M  V30 18 C 4.3301 1.0 0.0 0
M  V30 19 C 1.732 -1.5 0.0 0
M  V30 20 C 4.3301 0.0 0.0 0
M  V30 21 O 2.598 -2.0 0.0 0
M  V30 22 C 0.866 -2.0 0.0 0
M  V30 23 C 0.866 -3.0 0.0 0
M  V30 24 C 0.0 -1.5 0.0 0
M  V30 25 C 0.0 -3.5 0.0 0
M  V30 26 C -0.866 -2.0 0.0 0
M  V30 27 C -0.866 -3.0 0.0 0
M  V30 END ATOM
M  V30 BEGIN BOND
M  V30 1 2 1 2
M  V30 2 1 2 3
M  V30 3 1 2 4
M  V30 4 2 4 5
M  V30 5 1 4 6
M  V30 6 1 5 7
M  V30 7 1 5 8
M  V30 8 2 6 9
M  V30 9 2 7 10
M  V30 10 1 8 11
M  V30 11 2 8 12
M  V30 12 1 10 13
M  V30 13 2 13 14
M  V30 14 1 13 15
M  V30 15 1 14 16
M  V30 16 1 14 17
M  V30 17 2 15 18
M  V30 18 1 16 19
M  V30 19 2 17 20
M  V30 20 2 19 21
M  V30 21 1 19 22
M  V30 22 2 22 23
M  V30 23 1 22 24
M  V30 24 1 23 25
M  V30 25 2 24 26
M  V30 26 2 25 27
M  V30 27 1 9 12
M  V30 28 1 10 11
M  V30 29 1 18 20
M  V30 30 1 26 27
M  V30 END BOND
M  V30 END CTAB
M  END
>  <Rack>
PathogenBox_PlateD

>  <Position>
C06

>  <Compound ID>
MMV676162

>  <Disease Set>
KINETOPLASTIDS

>  <Trivial Name>


>  <Total Molecular Weight>
358.35

>  <Molecular Weight Parent Molecule>
358.35

>  <Molecular Formula>
C21H14N2O4

>  <Salt Name>


>  <Salt Coefficient>


>  <cLogP>
3.95

>  <SMILES>
OC(=O)c1cccc2oc(nc12)c3ccccc3NC(=O)c4ccccc4

$$$$
Compound 266
Actelion Java MolfileCreator 2.0

  0  0  0  0  0  0              0 V3000
M  V30 BEGIN CTAB
M  V30 COUNTS 27 30 0 0 0
M  V30 BEGIN ATOM
M  V30 1 Br 8.37 0.7957 0.0 0
M  V30 2 C 6.9028 0.4838 0.0 0
M  V30 3 C 5.8991 1.5985 0.0 0
M  V30 4 C 6.4393 -0.9427 0.0 0
M  V30 5 N 4.4319 1.2866 0.0 0
M  V30 6 C 4.972 -1.2546 0.0 0
M  V30 7 C 3.9684 -0.1398 0.0 0
M  V30 8 C 4.222 -2.5536 0.0 0
M  V30 9 N 2.598 -0.75 0.0 0
M  V30 10 C 4.8322 -3.9239 0.0 0
M  V30 11 C 2.7548 -2.2417 0.0 0
M  V30 12 S 1.299 0.0 0.0 0
M  V30 13 C 3.9505 -5.1375 0.0 0
M  V30 14 C 6.3239 -4.0807 0.0 0
M  V30 15 O 2.049 1.299 0.0 0
M  V30 16 O 0.549 1.299 0.0 0
M  V30 17 C 0.0 -0.75 0.0 0
M  V30 18 C 4.5606 -6.5078 0.0 0
M  V30 19 C 6.934 -5.451 0.0 0
M  V30 20 C -1.299 0.0 0.0 0
M  V30 21 C 0.0 -2.25 0.0 0
M  V30 22 N 6.0524 -6.6646 0.0 0
M  V30 23 N 3.6789 -7.7213 0.0 0
M  V30 24 C -2.598 -0.75 0.0 0
M  V30 25 C -1.299 -3.0 0.0 0
M  V30 26 C -2.598 -2.25 0.0 0
M  V30 27 C -3.8971 -3.0 0.0 0
M  V30 END ATOM
M  V30 BEGIN BOND
M  V30 1 1 1 2
M  V30 2 2 2 3
M  V30 3 1 2 4
M  V30 4 1 3 5
M  V30 5 2 4 6
M  V30 6 2 5 7
M  V30 7 1 6 8
M  V30 8 1 7 9
M  V30 9 1 8 10
M  V30 10 2 8 11
M  V30 11 1 9 12
M  V30 12 2 10 13
M  V30 13 1 10 14
M  V30 14 2 12 15
M  V30 15 2 12 16
M  V30 16 1 12 17
M  V30 17 1 13 18
M  V30 18 2 14 19
M  V30 19 2 17 20
M  V30 20 1 17 21
M  V30 21 2 18 22
M  V30 22 1 18 23
M  V30 23 1 20 24
M  V30 24 2 21 25
M  V30 25 2 24 26
M  V30 26 1 26 27
M  V30 27 1 6 7
M  V30 28 1 9 11
M  V30 29 1 19 22
M  V30 30 1 25 26
M  V30 END BOND
M  V30 END CTAB
M  END
>  <Rack>
PathogenBox_PlateD

>  <Position>
C07

>  <Compound ID>
MMV024114

>  <Disease Set>
MALARIA

>  <Trivial Name>


>  <Total Molecular Weight>
443.33

>  <Molecular Weight Parent Molecule>
443.33

>  <Molecular Formula>
C19H15N4O2BrS

>  <Salt Name>


>  <Salt Coefficient>


>  <cLogP>
2.63

>  <SMILES>
Cc1ccc(cc1)S(=O)(=O)n2cc(c3ccnc(N)c3)c4cc(Br)cnc24

$$$$
Compound 267
Actelion Java MolfileCreator 2.0

  0  0  0  0  0  0              0 V3000
M  V30 BEGIN CTAB
M  V30 COUNTS 29 30 0 0 0
M  V30 BEGIN ATOM
M  V30 1 S 5.1961 -6.75 0.0 0
M  V30 2 O 5.9461 -8.049 0.0 0
M  V30 3 O 6.6961 -6.7499 0.0 0
M  V30 4 N 3.8971 -7.5 0.0 0
M  V30 5 C 5.1961 -5.25 0.0 0
M  V30 6 C 3.8971 -9.0 0.0 0
M  V30 7 C 6.4952 -4.5 0.0 0
M  V30 8 C 3.8971 -4.5 0.0 0
M  V30 9 C 2.598 -9.75 0.0 0
M  V30 10 C 5.1961 -9.75 0.0 0
M  V30 11 C 6.4952 -3.0 0.0 0
M  V30 12 C 3.8971 -3.0 0.0 0
M  V30 13 C 2.598 -11.25 0.0 0
M  V30 14 C 5.1961 -11.25 0.0 0
M  V30 15 C 7.7942 -2.25 0.0 0
M  V30 16 C 5.1961 -2.25 0.0 0
M  V30 17 C 2.598 -2.25 0.0 0
M  V30 18 C 3.8971 -12.0 0.0 0
M  V30 19 N 9.0932 -1.5 0.0 0
M  V30 20 N 5.1961 -0.75 0.0 0
M  V30 21 N 1.299 -1.5 0.0 0
M  V30 22 C 6.4952 0.0 0.0 0
M  V30 23 C 3.8971 0.0 0.0 0
M  V30 24 C 7.7942 -0.75 0.0 0
M  V30 25 C 2.598 -0.75 0.0 0
M  V30 26 C 9.0932 0.0 0.0 0
M  V30 27 C 1.299 0.0 0.0 0
M  V30 28 C 10.3923 -0.75 0.0 0
M  V30 29 C 0.0 -0.75 0.0 0
M  V30 END ATOM
M  V30 BEGIN BOND
M  V30 1 2 1 2
M  V30 2 2 1 3
M  V30 3 1 1 4
M  V30 4 1 1 5
M  V30 5 1 4 6
M  V30 6 2 5 7
M  V30 7 1 5 8
M  V30 8 2 6 9
M  V30 9 1 6 10
M  V30 10 1 7 11
M  V30 11 2 8 12
M  V30 12 1 9 13
M  V30 13 2 10 14
M  V30 14 1 11 15
M  V30 15 2 11 16
M  V30 16 1 12 17
M  V30 17 2 13 18
M  V30 18 3 15 19
M  V30 19 1 16 20
M  V30 20 3 17 21
M  V30 21 1 20 22
M  V30 22 1 20 23
M  V30 23 1 22 24
M  V30 24 1 23 25
M  V30 25 1 24 26
M  V30 26 1 25 27
M  V30 27 1 26 28
M  V30 28 1 27 29
M  V30 29 1 12 16
M  V30 30 1 14 18
M  V30 END BOND
M  V30 END CTAB
M  END
>  <Rack>
PathogenBox_PlateD

>  <Position>
C08

>  <Compound ID>
MMV688467

>  <Disease Set>
KINETOPLASTIDS

>  <Trivial Name>


>  <Total Molecular Weight>
410.53

>  <Molecular Weight Parent Molecule>
410.53

>  <Molecular Formula>
C22H26N4O2S

>  <Salt Name>


>  <Salt Coefficient>


>  <cLogP>
4.16

>  <SMILES>
CCCCN(CCCC)c1c(cc(cc1C#N)S(=O)(=O)Nc2ccccc2)C#N

$$$$
Compound 268
Actelion Java MolfileCreator 2.0

  0  0  0  0  0  0              0 V3000
M  V30 BEGIN CTAB
M  V30 COUNTS 25 27 0 0 0
M  V30 BEGIN ATOM
M  V30 1 O 0.866 0.0 0.0 0
M  V30 2 C 1.732 -0.5 0.0 0
M  V30 3 C 0.0 -0.5 0.0 0
M  V30 4 C 1.732 -1.5 0.0 0
M  V30 5 C 2.598 0.0 0.0 0
M  V30 6 C 0.866 -1.9999 0.0 0
M  V30 7 C 2.598 -2.0 0.0 0
M  V30 8 C 3.4641 -0.5 0.0 0
M  V30 9 N -0.0475 -1.5932 0.0 0
M  V30 10 C 0.7614 -2.9945 0.0 0
M  V30 11 C 3.4641 -1.5 0.0 0
M  V30 12 N -0.7166 -2.3364 0.0 0
M  V30 13 N -0.2166 -3.2024 0.0 0
M  V30 14 C 4.3301 -2.0 0.0 0
M  V30 15 C -0.6233 -4.1159 0.0 0
M  V30 16 N 4.3301 -3.0 0.0 0
M  V30 17 N 5.1961 -1.5 0.0 0
M  V30 18 C -1.6179 -4.2205 0.0 0
M  V30 19 C -0.0356 -4.9249 0.0 0
M  V30 20 C -2.0246 -5.134 0.0 0
M  V30 21 C -0.4423 -5.8385 0.0 0
M  V30 22 C -1.4368 -5.943 0.0 0
M  V30 23 C -1.8435 -6.8566 0.0 0
M  V30 24 N -2.8381 -6.9611 0.0 0
M  V30 25 N -1.2558 -7.6656 0.0 0
M  V30 END ATOM
M  V30 BEGIN BOND
M  V30 1 1 1 2
M  V30 2 1 1 3
M  V30 3 2 2 4
M  V30 4 1 2 5
M  V30 5 1 4 6
M  V30 6 1 4 7
M  V30 7 2 5 8
M  V30 8 1 6 9
M  V30 9 2 6 10
M  V30 10 2 7 11
M  V30 11 2 9 12
M  V30 12 1 10 13
M  V30 13 1 11 14
M  V30 14 1 13 15
M  V30 15 2 14 16
M  V30 16 1 14 17
M  V30 17 2 15 18
M  V30 18 1 15 19
M  V30 19 1 18 20
M  V30 20 2 19 21
M  V30 21 2 20 22
M  V30 22 1 22 23
M  V30 23 2 23 24
M  V30 24 1 23 25
M  V30 25 1 8 11
M  V30 26 1 12 13
M  V30 27 1 21 22
M  V30 END BOND
M  V30 END CTAB
M  END
>  <Rack>
PathogenBox_PlateD

>  <Position>
C09

>  <Compound ID>
MMV675998

>  <Disease Set>
KINETOPLASTIDS

>  <Trivial Name>


>  <Total Molecular Weight>
408.28

>  <Molecular Weight Parent Molecule>
335.36

>  <Molecular Formula>
C17H17N7O

>  <Salt Name>
Hydrochloride

>  <Salt Coefficient>
2

>  <cLogP>
-0.47

>  <SMILES>
COc1ccc(cc1c2cn(nn2)c3ccc(cc3)C(=N)N)C(=N)N

$$$$
Compound 269
Actelion Java MolfileCreator 2.0

  0  0  0  0  0  0              0 V3000
M  V30 BEGIN CTAB
M  V30 COUNTS 25 27 0 0 0
M  V30 BEGIN ATOM
M  V30 1 F 5.3301 -3.0 0.0 0
M  V30 2 C 4.3301 -2.9999 0.0 0
M  V30 3 F 4.3301 -3.9999 0.0 0
M  V30 4 F 3.3301 -2.9999 0.0 0
M  V30 5 C 4.3301 -1.9999 0.0 0
M  V30 6 N 5.1961 -1.5 0.0 0
M  V30 7 C 3.4641 -1.5 0.0 0
M  V30 8 C 5.1961 -0.5 0.0 0
M  V30 9 C 3.4641 -0.5 0.0 0
M  V30 10 N 4.3301 0.0 0.0 0
M  V30 11 C 6.0621 0.0 0.0 0
M  V30 12 N 2.598 0.0 0.0 0
M  V30 13 N 6.9282 -0.5 0.0 0
M  V30 14 C 6.0621 0.9999 0.0 0
M  V30 15 C 1.732 -0.5 0.0 0
M  V30 16 C 7.7942 0.0 0.0 0
M  V30 17 C 6.9282 1.4999 0.0 0
M  V30 18 C 0.866 0.0 0.0 0
M  V30 19 C 7.7942 0.9999 0.0 0
M  V30 20 C 0.0 -0.5 0.0 0
M  V30 21 C -0.866 0.0 0.0 0
M  V30 22 C 0.0 -1.4999 0.0 0
M  V30 23 C -1.732 -0.4999 0.0 0
M  V30 24 C -0.866 -1.9999 0.0 0
M  V30 25 C -1.732 -1.4999 0.0 0
M  V30 END ATOM
M  V30 BEGIN BOND
M  V30 1 1 1 2
M  V30 2 1 2 3
M  V30 3 1 2 4
M  V30 4 1 2 5
M  V30 5 2 5 6
M  V30 6 1 5 7
M  V30 7 1 6 8
M  V30 8 2 7 9
M  V30 9 2 8 10
M  V30 10 1 8 11
M  V30 11 1 9 12
M  V30 12 2 11 13
M  V30 13 1 11 14
M  V30 14 1 12 15
M  V30 15 1 13 16
M  V30 16 2 14 17
M  V30 17 1 15 18
M  V30 18 2 16 19
M  V30 19 1 18 20
M  V30 20 2 20 21
M  V30 21 1 20 22
M  V30 22 1 21 23
M  V30 23 2 22 24
M  V30 24 2 23 25
M  V30 25 1 9 10
M  V30 26 1 17 19
M  V30 27 1 24 25
M  V30 END BOND
M  V30 END CTAB
M  END
>  <Rack>
PathogenBox_PlateD

>  <Position>
C10

>  <Compound ID>
MMV659010

>  <Disease Set>
KINETOPLASTIDS

>  <Trivial Name>


>  <Total Molecular Weight>
344.34

>  <Molecular Weight Parent Molecule>
344.34

>  <Molecular Formula>
C18H15N4F3

>  <Salt Name>


>  <Salt Coefficient>


>  <cLogP>
3.58

>  <SMILES>
FC(F)(F)c1cc(NCCc2ccccc2)nc(n1)c3ccccn3

$$$$
Compound 270
Actelion Java MolfileCreator 2.0

  0  0  0  0  0  0              0 V3000
M  V30 BEGIN CTAB
M  V30 COUNTS 33 37 0 0 0
M  V30 BEGIN ATOM
M  V30 1 O -2.3506 0.9703 0.0 0
M  V30 2 C -1.3506 0.9703 0.0 0
M  V30 3 O -0.8506 0.1043 0.0 0
M  V30 4 C -0.8506 1.8364 0.0 0
M  V30 5 C 0.1493 1.8364 0.0 0
M  V30 6 C -1.3506 2.7024 0.0 0
M  V30 7 N 0.8185 1.0932 0.0 0
M  V30 8 C 0.6493 2.7024 0.0 0
M  V30 9 C -0.8506 3.5684 0.0 0
M  V30 10 C 1.732 1.5 0.0 0
M  V30 11 O 1.6275 2.4945 0.0 0
M  V30 12 C 0.1493 3.5684 0.0 0
M  V30 13 C 2.598 1.0 0.0 0
M  V30 14 C 2.598 0.0 0.0 0
M  V30 15 C 3.4641 1.4999 0.0 0
M  V30 16 N 1.732 -0.5 0.0 0
M  V30 17 C 3.4641 -0.5 0.0 0
M  V30 18 C 4.3301 1.0 0.0 0
M  V30 19 C 1.732 -1.5 0.0 0
M  V30 20 O 3.4641 -1.5 0.0 0
M  V30 21 C 4.3301 0.0 0.0 0
M  V30 22 O 2.598 -2.0 0.0 0
M  V30 23 C 0.866 -2.0 0.0 0
M  V30 24 N 0.7614 -2.9945 0.0 0
M  V30 25 C -0.0475 -1.5932 0.0 0
M  V30 26 O -0.2166 -3.2024 0.0 0
M  V30 27 C -0.7166 -2.3364 0.0 0
M  V30 28 C -1.7111 -2.2318 0.0 0
M  V30 29 C -2.2989 -3.0408 0.0 0
M  V30 30 C -2.1179 -1.3183 0.0 0
M  V30 31 C -3.2934 -2.9363 0.0 0
M  V30 32 C -3.1124 -1.2138 0.0 0
M  V30 33 C -3.7002 -2.0228 0.0 0
M  V30 END ATOM
M  V30 BEGIN BOND
M  V30 1 2 1 2
M  V30 2 1 2 3
M  V30 3 1 2 4
M  V30 4 2 4 5
M  V30 5 1 4 6
M  V30 6 1 5 7
M  V30 7 1 5 8
M  V30 8 2 6 9
M  V30 9 2 7 10
M  V30 10 1 8 11
M  V30 11 2 8 12
M  V30 12 1 10 13
M  V30 13 2 13 14
M  V30 14 1 13 15
M  V30 15 1 14 16
M  V30 16 1 14 17
M  V30 17 2 15 18
M  V30 18 1 16 19
M  V30 19 1 17 20
M  V30 20 2 17 21
M  V30 21 2 19 22
M  V30 22 1 19 23
M  V30 23 2 23 24
M  V30 24 1 23 25
M  V30 25 1 24 26
M  V30 26 2 25 27
M  V30 27 1 27 28
M  V30 28 2 28 29
M  V30 29 1 28 30
M  V30 30 1 29 31
M  V30 31 2 30 32
M  V30 32 2 31 33
M  V30 33 1 9 12
M  V30 34 1 10 11
M  V30 35 1 18 21
M  V30 36 1 26 27
M  V30 37 1 32 33
M  V30 END BOND
M  V30 END CTAB
M  END
>  <Rack>
PathogenBox_PlateD

>  <Position>
C11

>  <Compound ID>
MMV676008

>  <Disease Set>
KINETOPLASTIDS

>  <Trivial Name>


>  <Total Molecular Weight>
441.39

>  <Molecular Weight Parent Molecule>
441.39

>  <Molecular Formula>
C24H15N3O6

>  <Salt Name>


>  <Salt Coefficient>


>  <cLogP>
3.82

>  <SMILES>
OC(=O)c1cccc2oc(nc12)c3cccc(O)c3NC(=O)c4cc(on4)c5ccccc5

$$$$
Compound 271
Actelion Java MolfileCreator 2.0

  0  0  0  0  0  0              0 V3000
M  V30 BEGIN CTAB
M  V30 COUNTS 26 28 0 0 0
M  V30 BEGIN ATOM
M  V30 1 F 3.4641 2.5 0.0 0
M  V30 2 C 3.4641 1.5 0.0 0
M  V30 3 C 2.598 1.0 0.0 0
M  V30 4 C 4.3301 1.0 0.0 0
M  V30 5 C 2.598 0.0 0.0 0
M  V30 6 C 4.3301 0.0 0.0 0
M  V30 7 C 3.4641 -0.4999 0.0 0
M  V30 8 C 1.732 -0.5 0.0 0
M  V30 9 O 0.866 0.0 0.0 0
M  V30 10 C 0.0 -0.5 0.0 0
M  V30 11 C -0.866 0.0 0.0 0
M  V30 12 C 0.0 -1.4999 0.0 0
M  V30 13 C -1.732 -0.4999 0.0 0
M  V30 14 C -0.866 -1.9999 0.0 0
M  V30 15 C -1.732 -1.4999 0.0 0
M  V30 16 C -2.598 -1.9999 0.0 0 CFG=1
M  V30 17 N -3.4641 -1.4999 0.0 0
M  V30 18 C -2.598 -2.9999 0.0 0
M  V30 19 C -3.4641 -0.4999 0.0 0 CFG=1
M  V30 20 C -4.3301 -1.9999 0.0 0
M  V30 21 C -3.4641 -3.4999 0.0 0
M  V30 22 C -4.3301 0.0 0.0 0
M  V30 23 C -2.598 0.0 0.0 0
M  V30 24 C -4.3301 -2.9999 0.0 0
M  V30 25 O -5.1961 -0.4999 0.0 0
M  V30 26 N -4.3301 1.0 0.0 0
M  V30 END ATOM
M  V30 BEGIN BOND
M  V30 1 1 1 2
M  V30 2 2 2 3
M  V30 3 1 2 4
M  V30 4 1 3 5
M  V30 5 2 4 6
M  V30 6 2 5 7
M  V30 7 1 5 8
M  V30 8 1 8 9
M  V30 9 1 9 10
M  V30 10 2 10 11
M  V30 11 1 10 12
M  V30 12 1 11 13
M  V30 13 2 12 14
M  V30 14 2 13 15
M  V30 15 1 16 15 CFG=3
M  V30 16 1 16 17
M  V30 17 1 16 18
M  V30 18 1 19 17 CFG=1
M  V30 19 1 17 20
M  V30 20 1 18 21
M  V30 21 1 19 22
M  V30 22 1 19 23
M  V30 23 1 20 24
M  V30 24 2 22 25
M  V30 25 1 22 26
M  V30 26 1 6 7
M  V30 27 1 14 15
M  V30 28 1 21 24
M  V30 END BOND
M  V30 BEGIN COLLECTION
M  V30 MDLV30/STEABS ATOMS=(2 16 19)
M  V30 END COLLECTION
M  V30 END CTAB
M  END
>  <Rack>
PathogenBox_PlateD

>  <Position>
D02

>  <Compound ID>
MMV676269

>  <Disease Set>
MALARIA

>  <Trivial Name>


>  <Total Molecular Weight>
356.43

>  <Molecular Weight Parent Molecule>
356.43

>  <Molecular Formula>
C21H25N2O2F

>  <Salt Name>


>  <Salt Coefficient>


>  <cLogP>
3.05

>  <SMILES>
C[C@@H](N1CCCC[C@H]1c2ccc(OCc3cccc(F)c3)cc2)C(=O)N

$$$$
Compound 272
Actelion Java MolfileCreator 2.0

  0  0  0  0  0  0              0 V3000
M  V30 BEGIN CTAB
M  V30 COUNTS 28 31 0 0 0
M  V30 BEGIN ATOM
M  V30 1 F 4.2714 4.9318 0.0 0
M  V30 2 C 4.9405 4.1887 0.0 0
M  V30 3 C 4.6315 3.2376 0.0 0
M  V30 4 C 5.9187 4.3966 0.0 0
M  V30 5 C 5.3006 2.4945 0.0 0
M  V30 6 C 6.5878 3.6534 0.0 0
M  V30 7 N 5.1961 1.5 0.0 0
M  V30 8 C 6.2788 2.7024 0.0 0
M  V30 9 C 6.1096 1.0932 0.0 0
M  V30 10 C 4.3301 1.0 0.0 0
M  V30 11 N 6.7788 1.8364 0.0 0
M  V30 12 C 6.3176 0.1151 0.0 0
M  V30 13 C 3.4641 1.5 0.0 0
M  V30 14 C 4.3301 0.0 0.0 0
M  V30 15 C 2.598 0.9999 0.0 0
M  V30 16 C 3.4641 -0.4999 0.0 0
M  V30 17 N 2.598 0.0 0.0 0
M  V30 18 C 1.732 -0.5 0.0 0
M  V30 19 O 1.732 -1.5 0.0 0
M  V30 20 C 0.866 0.0 0.0 0
M  V30 21 C 0.0 -0.5 0.0 0
M  V30 22 C -0.866 0.0 0.0 0
M  V30 23 C 0.0 -1.4999 0.0 0
M  V30 24 C -1.732 -0.4999 0.0 0
M  V30 25 C -0.866 -1.9999 0.0 0
M  V30 26 O -2.598 0.0 0.0 0
M  V30 27 C -1.732 -1.4999 0.0 0
M  V30 28 C -3.4641 -0.4999 0.0 0
M  V30 END ATOM
M  V30 BEGIN BOND
M  V30 1 1 1 2
M  V30 2 2 2 3
M  V30 3 1 2 4
M  V30 4 1 3 5
M  V30 5 2 4 6
M  V30 6 1 5 7
M  V30 7 2 5 8
M  V30 8 1 7 9
M  V30 9 1 7 10
M  V30 10 1 8 11
M  V30 11 1 9 12
M  V30 12 1 10 13
M  V30 13 1 10 14
M  V30 14 1 13 15
M  V30 15 1 14 16
M  V30 16 1 15 17
M  V30 17 1 17 18
M  V30 18 2 18 19
M  V30 19 1 18 20
M  V30 20 1 20 21
M  V30 21 2 21 22
M  V30 22 1 21 23
M  V30 23 1 22 24
M  V30 24 2 23 25
M  V30 25 1 24 26
M  V30 26 2 24 27
M  V30 27 1 26 28
M  V30 28 1 6 8
M  V30 29 2 9 11
M  V30 30 1 16 17
M  V30 31 1 25 27
M  V30 END BOND
M  V30 END CTAB
M  END
>  <Rack>
PathogenBox_PlateD

>  <Position>
D03

>  <Compound ID>
MMV020081

>  <Disease Set>
MALARIA

>  <Trivial Name>


>  <Total Molecular Weight>
381.45

>  <Molecular Weight Parent Molecule>
381.45

>  <Molecular Formula>
C22H24N3O2F

>  <Salt Name>


>  <Salt Coefficient>


>  <cLogP>
3.94

>  <SMILES>
COc1cccc(CC(=O)N2CCC(CC2)n3c(C)nc4ccc(F)cc34)c1

$$$$
Compound 273
Actelion Java MolfileCreator 2.0

  0  0  0  0  0  0              0 V3000
M  V30 BEGIN CTAB
M  V30 COUNTS 24 26 0 0 0
M  V30 BEGIN ATOM
M  V30 1 O 4.1032 1.3583 0.0 0
M  V30 2 C 4.022 -0.1417 0.0 0
M  V30 3 N 2.6332 -0.7601 0.0 0
M  V30 4 C 5.0393 -1.2715 0.0 0
M  V30 5 C 2.7921 -2.2721 0.0 0
M  V30 6 C 1.3166 0.0 0.0 0
M  V30 7 N 4.2791 -2.5881 0.0 0
M  V30 8 C 6.5512 -1.1126 0.0 0
M  V30 9 C 5.5841 0.1477 0.0 0
M  V30 10 N 1.6623 -3.2893 0.0 0
M  V30 11 C 0.0 -0.7601 0.0 0
M  V30 12 C 7.4448 -2.3426 0.0 0
M  V30 13 C 7.359 0.0293 0.0 0
M  V30 14 C 6.991 0.5089 0.0 0
M  V30 15 C 4.7448 1.3226 0.0 0
M  V30 16 C 0.7601 -2.0767 0.0 0
M  V30 17 C -1.3166 -1.5202 0.0 0
M  V30 18 C -0.7601 0.5564 0.0 0
M  V30 19 C 8.9568 -2.1836 0.0 0
M  V30 20 C 8.6816 0.435 0.0 0
M  V30 21 C 7.6305 1.8048 0.0 0
M  V30 22 C 5.1722 2.7485 0.0 0
M  V30 23 C 9.5752 -0.7948 0.0 0
M  V30 24 C 6.6737 2.9863 0.0 0
M  V30 END ATOM
M  V30 BEGIN BOND
M  V30 1 2 1 2
M  V30 2 1 2 3
M  V30 3 1 2 4
M  V30 4 1 3 5
M  V30 5 1 3 6
M  V30 6 1 4 7
M  V30 7 1 4 8
M  V30 8 1 4 9
M  V30 9 1 5 10
M  V30 10 1 6 11
M  V30 11 2 8 12
M  V30 12 1 8 13
M  V30 13 2 9 14
M  V30 14 1 9 15
M  V30 15 1 11 16
M  V30 16 1 11 17
M  V30 17 1 11 18
M  V30 18 1 12 19
M  V30 19 2 13 20
M  V30 20 1 14 21
M  V30 21 2 15 22
M  V30 22 2 19 23
M  V30 23 2 21 24
M  V30 24 2 5 7
M  V30 25 1 20 23
M  V30 26 1 22 24
M  V30 END BOND
M  V30 END CTAB
M  END
>  <Rack>
PathogenBox_PlateD

>  <Position>
D04

>  <Compound ID>
MMV026550

>  <Disease Set>
MALARIA

>  <Trivial Name>


>  <Total Molecular Weight>
321.42

>  <Molecular Weight Parent Molecule>
321.42

>  <Molecular Formula>
C20H23N3O

>  <Salt Name>


>  <Salt Coefficient>


>  <cLogP>
3.08

>  <SMILES>
CC(C)(C)CN1C(=NC(C1=O)(c2ccccc2)c3ccccc3)N

$$$$
Compound 274
Actelion Java MolfileCreator 2.0

  0  0  0  0  0  0              0 V3000
M  V30 BEGIN CTAB
M  V30 COUNTS 21 22 0 0 0
M  V30 BEGIN ATOM
M  V30 1 O 4.3301 0.0 0.0 0
M  V30 2 C 3.4641 -0.5 0.0 0
M  V30 3 N 2.598 0.0 0.0 0
M  V30 4 C 3.4641 -1.5 0.0 0
M  V30 5 C 2.598 1.0 0.0 0
M  V30 6 C 1.732 -0.5 0.0 0
M  V30 7 C 3.4641 1.5 0.0 0
M  V30 8 C 1.732 1.5 0.0 0
M  V30 9 C 0.866 0.0 0.0 0
M  V30 10 C 3.4641 2.5 0.0 0
M  V30 11 C 1.732 2.5 0.0 0
M  V30 12 C 0.0 -0.5 0.0 0
M  V30 13 C 2.598 3.0 0.0 0
M  V30 14 N -0.866 0.0 0.0 0
M  V30 15 C 0.0 -1.4999 0.0 0
M  V30 16 O 2.598 4.0 0.0 0
M  V30 17 C -1.732 -0.4999 0.0 0
M  V30 18 C -0.866 -1.9999 0.0 0
M  V30 19 C 1.732 4.5 0.0 0
M  V30 20 C -1.732 -1.4999 0.0 0
M  V30 21 C -2.598 0.0 0.0 0
M  V30 END ATOM
M  V30 BEGIN BOND
M  V30 1 2 1 2
M  V30 2 1 2 3
M  V30 3 1 2 4
M  V30 4 1 3 5
M  V30 5 1 3 6
M  V30 6 2 5 7
M  V30 7 1 5 8
M  V30 8 1 6 9
M  V30 9 1 7 10
M  V30 10 2 8 11
M  V30 11 1 9 12
M  V30 12 2 10 13
M  V30 13 2 12 14
M  V30 14 1 12 15
M  V30 15 1 13 16
M  V30 16 1 14 17
M  V30 17 2 15 18
M  V30 18 1 16 19
M  V30 19 2 17 20
M  V30 20 1 17 21
M  V30 21 1 11 13
M  V30 22 1 18 20
M  V30 END BOND
M  V30 END CTAB
M  END
>  <Rack>
PathogenBox_PlateD

>  <Position>
D05

>  <Compound ID>
MMV675995

>  <Disease Set>
ONCHOCERCIASIS

>  <Trivial Name>


>  <Total Molecular Weight>
284.35

>  <Molecular Weight Parent Molecule>
284.35

>  <Molecular Formula>
C17H20N2O2

>  <Salt Name>


>  <Salt Coefficient>


>  <cLogP>
2.84

>  <SMILES>
COc1ccc(cc1)N(CCc2cccc(C)n2)C(=O)C

$$$$
Compound 275
Actelion Java MolfileCreator 2.0

  0  0  0  0  0  0              0 V3000
M  V30 BEGIN CTAB
M  V30 COUNTS 37 41 0 0 0
M  V30 BEGIN ATOM
M  V30 1 Cl 2.598 -9.7499 0.0 0
M  V30 2 C 3.8971 -8.9999 0.0 0
M  V30 3 C 5.1961 -9.75 0.0 0
M  V30 4 C 3.8971 -7.4999 0.0 0
M  V30 5 O 5.1961 -11.2499 0.0 0
M  V30 6 C 6.4951 -9.0 0.0 0
M  V30 7 C 5.1961 -6.7499 0.0 0
M  V30 8 C 3.8971 -11.9999 0.0 0
M  V30 9 C 6.4951 -7.5 0.0 0
M  V30 10 N 5.1961 -5.2499 0.0 0
M  V30 11 C 3.8971 -13.4999 0.0 0
M  V30 12 C 6.4951 -4.5 0.0 0
M  V30 13 C 2.598 -14.2499 0.0 0
M  V30 14 C 5.1961 -14.25 0.0 0
M  V30 15 N 7.7942 -5.25 0.0 0
M  V30 16 C 6.4951 -3.0 0.0 0
M  V30 17 C 2.598 -15.7499 0.0 0
M  V30 18 C 5.1961 -15.75 0.0 0
M  V30 19 C 9.0932 -4.5 0.0 0
M  V30 20 C 7.7942 -2.25 0.0 0
M  V30 21 C 5.1961 -2.25 0.0 0
M  V30 22 F 1.299 -16.4999 0.0 0
M  V30 23 C 3.8971 -16.4999 0.0 0
M  V30 24 N 9.0932 -3.0 0.0 0
M  V30 25 C 7.7942 -0.75 0.0 0
M  V30 26 C 5.1961 -0.75 0.0 0
M  V30 27 C 6.4951 0.0 0.0 0
M  V30 28 N 3.8971 0.0 0.0 0
M  V30 29 C 2.598 -0.75 0.0 0
M  V30 30 O 2.598 -2.25 0.0 0
M  V30 31 C 1.299 0.0 0.0 0
M  V30 32 N 0.0 -0.75 0.0 0
M  V30 33 C -1.299 0.0 0.0 0
M  V30 34 C 0.0 -2.25 0.0 0
M  V30 35 C -2.598 -0.7499 0.0 0
M  V30 36 C -1.299 -2.9999 0.0 0
M  V30 37 O -2.598 -2.2499 0.0 0
M  V30 END ATOM
M  V30 BEGIN BOND
M  V30 1 1 1 2
M  V30 2 2 2 3
M  V30 3 1 2 4
M  V30 4 1 3 5
M  V30 5 1 3 6
M  V30 6 2 4 7
M  V30 7 1 5 8
M  V30 8 2 6 9
M  V30 9 1 7 10
M  V30 10 1 8 11
M  V30 11 1 10 12
M  V30 12 2 11 13
M  V30 13 1 11 14
M  V30 14 2 12 15
M  V30 15 1 12 16
M  V30 16 1 13 17
M  V30 17 2 14 18
M  V30 18 1 15 19
M  V30 19 1 16 20
M  V30 20 2 16 21
M  V30 21 1 17 22
M  V30 22 2 17 23
M  V30 23 2 19 24
M  V30 24 2 20 25
M  V30 25 1 21 26
M  V30 26 1 25 27
M  V30 27 1 26 28
M  V30 28 1 28 29
M  V30 29 2 29 30
M  V30 30 1 29 31
M  V30 31 1 31 32
M  V30 32 1 32 33
M  V30 33 1 32 34
M  V30 34 1 33 35
M  V30 35 1 34 36
M  V30 36 1 35 37
M  V30 37 1 7 9
M  V30 38 1 18 23
M  V30 39 1 20 24
M  V30 40 2 26 27
M  V30 41 1 36 37
M  V30 END BOND
M  V30 END CTAB
M  END
>  <Rack>
PathogenBox_PlateD

>  <Position>
D06

>  <Compound ID>
MMV688274

>  <Disease Set>
KINETOPLASTIDS

>  <Trivial Name>


>  <Total Molecular Weight>
521.97

>  <Molecular Weight Parent Molecule>
521.97

>  <Molecular Formula>
C27H25N5O3ClF

>  <Salt Name>


>  <Salt Coefficient>


>  <cLogP>
4.32

>  <SMILES>
Fc1cccc(COc2ccc(Nc3ncnc4ccc(NC(=O)CN5CCOCC5)cc34)cc2Cl)c1

$$$$
Compound 276
Actelion Java MolfileCreator 2.0

  0  0  0  0  0  0              0 V3000
M  V30 BEGIN CTAB
M  V30 COUNTS 26 29 0 0 0
M  V30 BEGIN ATOM
M  V30 1 S 0.866 0.0 0.0 0
M  V30 2 O 1.366 -0.866 0.0 0
M  V30 3 O 0.366 0.866 0.0 0
M  V30 4 N 1.732 0.4999 0.0 0
M  V30 5 C 0.0 -0.5 0.0 0
M  V30 6 C -0.866 0.0 0.0 0
M  V30 7 C 0.0 -1.4999 0.0 0
M  V30 8 C -1.732 -0.4999 0.0 0
M  V30 9 C -0.866 -1.9999 0.0 0
M  V30 10 C -2.598 0.0 0.0 0
M  V30 11 C -1.732 -1.4999 0.0 0
M  V30 12 C -2.598 1.0 0.0 0
M  V30 13 C -3.4641 -0.4999 0.0 0
M  V30 14 C -3.4641 1.5 0.0 0
M  V30 15 C -4.3301 0.0 0.0 0
M  V30 16 N -3.4641 2.5 0.0 0
M  V30 17 C -4.3301 1.0 0.0 0
M  V30 18 C -4.3301 3.0 0.0 0
M  V30 19 N -5.1961 1.5 0.0 0
M  V30 20 N -4.3301 4.0 0.0 0
M  V30 21 C -5.1961 2.5 0.0 0
M  V30 22 C -3.4641 4.5 0.0 0
M  V30 23 C -5.1961 4.5 0.0 0
M  V30 24 C -3.4641 5.5 0.0 0
M  V30 25 C -5.1961 5.5 0.0 0
M  V30 26 O -4.3301 6.0 0.0 0
M  V30 END ATOM
M  V30 BEGIN BOND
M  V30 1 2 1 2
M  V30 2 2 1 3
M  V30 3 1 1 4
M  V30 4 1 1 5
M  V30 5 2 5 6
M  V30 6 1 5 7
M  V30 7 1 6 8
M  V30 8 2 7 9
M  V30 9 1 8 10
M  V30 10 2 8 11
M  V30 11 2 10 12
M  V30 12 1 10 13
M  V30 13 1 12 14
M  V30 14 2 13 15
M  V30 15 2 14 16
M  V30 16 1 14 17
M  V30 17 1 16 18
M  V30 18 2 17 19
M  V30 19 1 18 20
M  V30 20 2 18 21
M  V30 21 1 20 22
M  V30 22 1 20 23
M  V30 23 1 22 24
M  V30 24 1 23 25
M  V30 25 1 24 26
M  V30 26 1 9 11
M  V30 27 1 15 17
M  V30 28 1 19 21
M  V30 29 1 25 26
M  V30 END BOND
M  V30 END CTAB
M  END
>  <Rack>
PathogenBox_PlateD

>  <Position>
D07

>  <Compound ID>
MMV023860

>  <Disease Set>
MALARIA

>  <Trivial Name>


>  <Total Molecular Weight>
370.43

>  <Molecular Weight Parent Molecule>
370.43

>  <Molecular Formula>
C18H18N4O3S

>  <Salt Name>


>  <Salt Coefficient>


>  <cLogP>
1.54

>  <SMILES>
NS(=O)(=O)c1cccc(c1)c2ccc3ncc(nc3c2)N4CCOCC4

$$$$
Compound 277
Actelion Java MolfileCreator 2.0

  0  0  0  0  0  0              0 V3000
M  V30 BEGIN CTAB
M  V30 COUNTS 29 33 0 0 0
M  V30 BEGIN ATOM
M  V30 1 O 0.866 0.0 0.0 0
M  V30 2 C 1.732 -0.5 0.0 0
M  V30 3 C 0.0 -0.5 0.0 0
M  V30 4 C 1.732 -1.5 0.0 0
M  V30 5 C 2.598 0.0 0.0 0
M  V30 6 C 0.866 -1.9999 0.0 0
M  V30 7 C 2.598 -2.0 0.0 0
M  V30 8 C 3.4641 -0.5 0.0 0
M  V30 9 N -0.0475 -1.5932 0.0 0
M  V30 10 C 0.7614 -2.9945 0.0 0
M  V30 11 C 3.4641 -1.5 0.0 0
M  V30 12 C 4.3301 0.0 0.0 0
M  V30 13 N -0.7166 -2.3364 0.0 0
M  V30 14 N -0.2166 -3.2024 0.0 0
M  V30 15 N 5.2436 -0.4067 0.0 0
M  V30 16 N 4.4346 0.9945 0.0 0
M  V30 17 C -0.6233 -4.1159 0.0 0
M  V30 18 C 5.9128 0.3364 0.0 0
M  V30 19 C 5.4128 1.2024 0.0 0
M  V30 20 C -1.6179 -4.2205 0.0 0
M  V30 21 C -0.0356 -4.9249 0.0 0
M  V30 22 C -2.0246 -5.134 0.0 0
M  V30 23 C -0.4423 -5.8385 0.0 0
M  V30 24 C -3.0191 -5.2385 0.0 0
M  V30 25 C -1.4368 -5.943 0.0 0
M  V30 26 N -3.6882 -4.4954 0.0 0
M  V30 27 N -3.5191 -6.1046 0.0 0
M  V30 28 C -4.6018 -4.9021 0.0 0
M  V30 29 C -4.4973 -5.8966 0.0 0
M  V30 END ATOM
M  V30 BEGIN BOND
M  V30 1 1 1 2
M  V30 2 1 1 3
M  V30 3 2 2 4
M  V30 4 1 2 5
M  V30 5 1 4 6
M  V30 6 1 4 7
M  V30 7 2 5 8
M  V30 8 1 6 9
M  V30 9 2 6 10
M  V30 10 2 7 11
M  V30 11 1 8 12
M  V30 12 2 9 13
M  V30 13 1 10 14
M  V30 14 2 12 15
M  V30 15 1 12 16
M  V30 16 1 14 17
M  V30 17 1 15 18
M  V30 18 1 16 19
M  V30 19 2 17 20
M  V30 20 1 17 21
M  V30 21 1 20 22
M  V30 22 2 21 23
M  V30 23 1 22 24
M  V30 24 2 22 25
M  V30 25 2 24 26
M  V30 26 1 24 27
M  V30 27 1 26 28
M  V30 28 1 27 29
M  V30 29 1 8 11
M  V30 30 1 13 14
M  V30 31 1 18 19
M  V30 32 1 23 25
M  V30 33 1 28 29
M  V30 END BOND
M  V30 END CTAB
M  END
>  <Rack>
PathogenBox_PlateD

>  <Position>
D08

>  <Compound ID>
MMV688407

>  <Disease Set>
KINETOPLASTIDS

>  <Trivial Name>


>  <Total Molecular Weight>
387.44

>  <Molecular Weight Parent Molecule>
387.44

>  <Molecular Formula>
C21H21N7O

>  <Salt Name>


>  <Salt Coefficient>


>  <cLogP>
0.90

>  <SMILES>
COc1cc(ccc1c2cn(nn2)c3cccc(c3)C4=NCCN4)C5=NCCN5

$$$$
Compound 278
Actelion Java MolfileCreator 2.0

  0  0  0  0  0  0              0 V3000
M  V30 BEGIN CTAB
M  V30 COUNTS 32 35 0 0 0
M  V30 BEGIN ATOM
M  V30 1 O 1.732 -0.5 0.0 0
M  V30 2 C 0.866 0.0 0.0 0
M  V30 3 N 0.866 1.0 0.0 0
M  V30 4 C 0.0 -0.5 0.0 0
M  V30 5 C 1.732 1.4999 0.0 0
M  V30 6 C 0.0 1.4999 0.0 0
M  V30 7 N -0.9135 -0.0932 0.0 0
M  V30 8 C -0.1045 -1.4945 0.0 0
M  V30 9 C 1.732 2.5 0.0 0
M  V30 10 C 0.0 2.5 0.0 0
M  V30 11 N -1.5826 -0.8364 0.0 0
M  V30 12 C -1.1214 0.8848 0.0 0
M  V30 13 C -1.0826 -1.7024 0.0 0
M  V30 14 N 0.866 3.0 0.0 0
M  V30 15 C -2.0725 1.1939 0.0 0
M  V30 16 C -1.4894 -2.6159 0.0 0
M  V30 17 C 0.866 4.0 0.0 0
M  V30 18 C -2.2804 2.172 0.0 0
M  V30 19 C -2.8156 0.5247 0.0 0
M  V30 20 C -0.5758 -3.0227 0.0 0
M  V30 21 C -1.8961 -3.5295 0.0 0
M  V30 22 C -2.4029 -2.2092 0.0 0
M  V30 23 N 1.732 4.5 0.0 0
M  V30 24 C 0.0 4.4999 0.0 0
M  V30 25 C -3.2314 2.481 0.0 0
M  V30 26 C -3.7667 0.8337 0.0 0
M  V30 27 C 1.732 5.5 0.0 0
M  V30 28 N 0.0 5.5 0.0 0
M  V30 29 C -0.866 4.0 0.0 0
M  V30 30 C -3.9746 1.8119 0.0 0
M  V30 31 C 0.866 6.0 0.0 0
M  V30 32 N -1.732 3.4999 0.0 0
M  V30 END ATOM
M  V30 BEGIN BOND
M  V30 1 2 1 2
M  V30 2 1 2 3
M  V30 3 1 2 4
M  V30 4 1 3 5
M  V30 5 1 3 6
M  V30 6 1 4 7
M  V30 7 2 4 8
M  V30 8 1 5 9
M  V30 9 1 6 10
M  V30 10 1 7 11
M  V30 11 1 7 12
M  V30 12 1 8 13
M  V30 13 1 9 14
M  V30 14 1 12 15
M  V30 15 1 13 16
M  V30 16 1 14 17
M  V30 17 2 15 18
M  V30 18 1 15 19
M  V30 19 1 16 20
M  V30 20 1 16 21
M  V30 21 1 16 22
M  V30 22 2 17 23
M  V30 23 1 17 24
M  V30 24 1 18 25
M  V30 25 2 19 26
M  V30 26 1 23 27
M  V30 27 2 24 28
M  V30 28 1 24 29
M  V30 29 2 25 30
M  V30 30 2 27 31
M  V30 31 3 29 32
M  V30 32 1 10 14
M  V30 33 2 11 13
M  V30 34 1 26 30
M  V30 35 1 28 31
M  V30 END BOND
M  V30 END CTAB
M  END
>  <Rack>
PathogenBox_PlateD

>  <Position>
D09

>  <Compound ID>
MMV023949

>  <Disease Set>
MALARIA

>  <Trivial Name>


>  <Total Molecular Weight>
429.53

>  <Molecular Weight Parent Molecule>
429.53

>  <Molecular Formula>
C24H27N7O

>  <Salt Name>


>  <Salt Coefficient>


>  <cLogP>
2.29

>  <SMILES>
CC(C)(C)c1cc(C(=O)N2CCN(CC2)c3nccnc3C#N)n(Cc4ccccc4)n1

$$$$
Compound 279
Actelion Java MolfileCreator 2.0

  0  0  0  0  0  0              0 V3000
M  V30 BEGIN CTAB
M  V30 COUNTS 32 36 0 0 0
M  V30 BEGIN ATOM
M  V30 1 S 4.3301 -1.9999 0.0 0
M  V30 2 O 3.8301 -2.866 0.0 0
M  V30 3 O 4.8301 -1.1339 0.0 0
M  V30 4 N 3.4641 -1.4999 0.0 0
M  V30 5 C 5.1961 -2.5 0.0 0
M  V30 6 C 3.4641 -0.5 0.0 0
M  V30 7 C 2.598 -1.9999 0.0 0
M  V30 8 C 2.598 0.0 0.0 0
M  V30 9 C 1.732 -1.5 0.0 0
M  V30 10 C 1.732 -0.5 0.0 0
M  V30 11 C 0.866 0.0 0.0 0
M  V30 12 N 0.0 -0.5 0.0 0
M  V30 13 N -0.9135 -0.0932 0.0 0
M  V30 14 C -0.1045 -1.4945 0.0 0
M  V30 15 C -1.5826 -0.8364 0.0 0
M  V30 16 N 0.5646 -2.2376 0.0 0
M  V30 17 C -1.0826 -1.7024 0.0 0
M  V30 18 C -2.5771 -0.7318 0.0 0
M  V30 19 C 0.2555 -3.1887 0.0 0
M  V30 20 C -1.3916 -2.6534 0.0 0
M  V30 21 C -2.9839 0.1816 0.0 0
M  V30 22 N -0.7225 -3.3966 0.0 0
M  V30 23 N -2.3698 -2.8614 0.0 0
M  V30 24 C -2.3961 0.9906 0.0 0
M  V30 25 C -3.9784 0.2861 0.0 0
M  V30 26 C -2.8028 1.9042 0.0 0
M  V30 27 C -1.4016 0.8861 0.0 0
M  V30 28 C -4.3851 1.1997 0.0 0
M  V30 29 C -3.7974 2.0087 0.0 0
M  V30 30 C -2.2151 2.7132 0.0 0
M  V30 31 C -0.8138 1.6951 0.0 0
M  V30 32 C -1.2205 2.6087 0.0 0
M  V30 END ATOM
M  V30 BEGIN BOND
M  V30 1 2 1 2
M  V30 2 2 1 3
M  V30 3 1 1 4
M  V30 4 1 1 5
M  V30 5 1 4 6
M  V30 6 1 4 7
M  V30 7 1 6 8
M  V30 8 1 7 9
M  V30 9 1 8 10
M  V30 10 1 10 11
M  V30 11 1 11 12
M  V30 12 1 12 13
M  V30 13 1 12 14
M  V30 14 2 13 15
M  V30 15 2 14 16
M  V30 16 1 14 17
M  V30 17 1 15 18
M  V30 18 1 16 19
M  V30 19 2 17 20
M  V30 20 1 18 21
M  V30 21 2 19 22
M  V30 22 1 20 23
M  V30 23 1 21 24
M  V30 24 2 21 25
M  V30 25 1 24 26
M  V30 26 2 24 27
M  V30 27 1 25 28
M  V30 28 1 26 29
M  V30 29 2 26 30
M  V30 30 1 27 31
M  V30 31 1 30 32
M  V30 32 1 9 10
M  V30 33 1 15 17
M  V30 34 1 20 22
M  V30 35 2 28 29
M  V30 36 2 31 32
M  V30 END BOND
M  V30 END CTAB
M  END
>  <Rack>
PathogenBox_PlateD

>  <Position>
D10

>  <Compound ID>
MMV676050

>  <Disease Set>
CRYPTOSPORIDIOSIS

>  <Trivial Name>


>  <Total Molecular Weight>
450.56

>  <Molecular Weight Parent Molecule>
450.56

>  <Molecular Formula>
C23H26N6O2S

>  <Salt Name>


>  <Salt Coefficient>


>  <cLogP>
2.66

>  <SMILES>
CS(=O)(=O)N1CCC(Cn2nc(Cc3cccc4ccccc34)c5c(N)ncnc25)CC1

$$$$
Compound 280
Actelion Java MolfileCreator 2.0

  0  0  0  0  0  0              0 V3000
M  V30 BEGIN CTAB
M  V30 COUNTS 29 32 0 0 0
M  V30 BEGIN ATOM
M  V30 1 Cl 5.1961 -0.5 0.0 0
M  V30 2 C 4.3301 0.0 0.0 0
M  V30 3 C 4.3301 1.0 0.0 0
M  V30 4 C 3.4641 -0.4999 0.0 0
M  V30 5 N 3.4641 1.5 0.0 0
M  V30 6 N 5.1961 1.5 0.0 0
M  V30 7 C 2.598 0.0 0.0 0
M  V30 8 C 2.598 1.0 0.0 0
M  V30 9 C 6.0621 0.9999 0.0 0
M  V30 10 C 5.1961 2.4999 0.0 0
M  V30 11 C 1.732 -0.5 0.0 0
M  V30 12 C 6.9282 1.4999 0.0 0
M  V30 13 C 6.0621 2.9999 0.0 0
M  V30 14 O 1.732 -1.5 0.0 0
M  V30 15 N 0.866 0.0 0.0 0
M  V30 16 N 6.9282 2.4999 0.0 0
M  V30 17 C 0.0 -0.5 0.0 0
M  V30 18 C 7.7942 2.9999 0.0 0
M  V30 19 C -0.866 0.0 0.0 0
M  V30 20 C 0.0 -1.4999 0.0 0
M  V30 21 C 8.6602 2.4999 0.0 0
M  V30 22 C 7.7942 3.9999 0.0 0
M  V30 23 C -1.732 -0.4999 0.0 0
M  V30 24 C -0.866 -1.9999 0.0 0
M  V30 25 C 9.5262 2.9999 0.0 0
M  V30 26 C 8.6602 4.4999 0.0 0
M  V30 27 Cl -2.598 0.0 0.0 0
M  V30 28 C -1.732 -1.4999 0.0 0
M  V30 29 N 9.5262 3.9999 0.0 0
M  V30 END ATOM
M  V30 BEGIN BOND
M  V30 1 1 1 2
M  V30 2 2 2 3
M  V30 3 1 2 4
M  V30 4 1 3 5
M  V30 5 1 3 6
M  V30 6 2 4 7
M  V30 7 2 5 8
M  V30 8 1 6 9
M  V30 9 1 6 10
M  V30 10 1 7 11
M  V30 11 1 9 12
M  V30 12 1 10 13
M  V30 13 2 11 14
M  V30 14 1 11 15
M  V30 15 1 12 16
M  V30 16 1 15 17
M  V30 17 1 16 18
M  V30 18 2 17 19
M  V30 19 1 17 20
M  V30 20 2 18 21
M  V30 21 1 18 22
M  V30 22 1 19 23
M  V30 23 2 20 24
M  V30 24 1 21 25
M  V30 25 2 22 26
M  V30 26 1 23 27
M  V30 27 2 23 28
M  V30 28 2 25 29
M  V30 29 1 7 8
M  V30 30 1 13 16
M  V30 31 1 24 28
M  V30 32 1 26 29
M  V30 END BOND
M  V30 END CTAB
M  END
>  <Rack>
PathogenBox_PlateD

>  <Position>
D11

>  <Compound ID>
MMV024406

>  <Disease Set>
MALARIA

>  <Trivial Name>


>  <Total Molecular Weight>
428.32

>  <Molecular Weight Parent Molecule>
428.32

>  <Molecular Formula>
C21H19N5OCl2

>  <Salt Name>


>  <Salt Coefficient>


>  <cLogP>
3.64

>  <SMILES>
Clc1cccc(NC(=O)c2cnc(N3CCN(CC3)c4ccncc4)c(Cl)c2)c1

$$$$
Compound 281
Actelion Java MolfileCreator 2.0

  0  0  0  0  0  0              0 V3000
M  V30 BEGIN CTAB
M  V30 COUNTS 20 23 0 0 0
M  V30 BEGIN ATOM
M  V30 1 N 1.299 1.5 0.0 0
M  V30 2 C 1.299 0.0 0.0 0
M  V30 3 C 2.598 2.2499 0.0 0
M  V30 4 N 0.0 -0.75 0.0 0
M  V30 5 C 2.598 -0.75 0.0 0
M  V30 6 C 3.8971 1.4999 0.0 0
M  V30 7 C 3.8971 0.0 0.0 0
M  V30 8 C 2.598 -2.25 0.0 0
M  V30 9 C 5.1961 -0.75 0.0 0
M  V30 10 C 3.8971 -3.0 0.0 0
M  V30 11 C 5.1961 -2.25 0.0 0
M  V30 12 C 3.8971 -4.5 0.0 0
M  V30 13 C 5.1961 -5.25 0.0 0
M  V30 14 C 2.598 -5.25 0.0 0
M  V30 15 N 5.1961 -6.75 0.0 0
M  V30 16 C 2.598 -6.75 0.0 0
M  V30 17 C 3.8971 -7.5 0.0 0
M  V30 18 C 6.3108 -7.7536 0.0 0
M  V30 19 N 4.2089 -8.9672 0.0 0
M  V30 20 C 5.7007 -9.124 0.0 0
M  V30 END ATOM
M  V30 BEGIN BOND
M  V30 1 2 1 2
M  V30 2 1 1 3
M  V30 3 1 2 4
M  V30 4 1 2 5
M  V30 5 2 3 6
M  V30 6 1 5 7
M  V30 7 2 5 8
M  V30 8 2 7 9
M  V30 9 1 8 10
M  V30 10 1 9 11
M  V30 11 1 10 12
M  V30 12 2 12 13
M  V30 13 1 12 14
M  V30 14 1 13 15
M  V30 15 2 14 16
M  V30 16 1 15 17
M  V30 17 1 15 18
M  V30 18 2 17 19
M  V30 19 2 18 20
M  V30 20 1 6 7
M  V30 21 2 10 11
M  V30 22 1 16 17
M  V30 23 1 19 20
M  V30 END BOND
M  V30 END CTAB
M  END
>  <Rack>
PathogenBox_PlateD

>  <Position>
E02

>  <Compound ID>
MMV023233

>  <Disease Set>
MALARIA

>  <Trivial Name>


>  <Total Molecular Weight>
260.30

>  <Molecular Weight Parent Molecule>
260.30

>  <Molecular Formula>
C16H12N4

>  <Salt Name>


>  <Salt Coefficient>


>  <cLogP>
2.13

>  <SMILES>
Nc1nccc2ccc(cc12)c3ccc4nccn4c3

$$$$
Compound 282
Actelion Java MolfileCreator 2.0

  0  0  0  0  0  0              0 V3000
M  V30 BEGIN CTAB
M  V30 COUNTS 23 25 0 0 0
M  V30 BEGIN ATOM
M  V30 1 O 8.6602 0.4999 0.0 0
M  V30 2 C 7.7942 0.9999 0.0 0
M  V30 3 C 7.7942 1.9999 0.0 0
M  V30 4 C 6.9282 0.4999 0.0 0
M  V30 5 C 6.9282 2.4999 0.0 0
M  V30 6 C 8.6602 2.4999 0.0 0
M  V30 7 C 6.0621 0.9999 0.0 0
M  V30 8 O 6.0621 1.9999 0.0 0
M  V30 9 C 6.9282 3.4999 0.0 0
M  V30 10 C 8.6602 3.4999 0.0 0
M  V30 11 C 5.1961 1.4999 0.0 0
M  V30 12 C 6.0621 0.0 0.0 0
M  V30 13 C 7.7942 3.9999 0.0 0
M  V30 14 C 9.5262 3.9999 0.0 0
M  V30 15 C 4.3301 1.0 0.0 0
M  V30 16 C 5.1961 -0.5 0.0 0
M  V30 17 N 4.3301 0.0 0.0 0
M  V30 18 C 3.4641 -0.5 0.0 0
M  V30 19 O 3.4641 -1.5 0.0 0
M  V30 20 N 2.598 0.0 0.0 0
M  V30 21 C 1.732 -0.5 0.0 0
M  V30 22 C 0.866 0.0 0.0 0
M  V30 23 C 0.0 -0.5 0.0 0
M  V30 END ATOM
M  V30 BEGIN BOND
M  V30 1 2 1 2
M  V30 2 1 2 3
M  V30 3 1 2 4
M  V30 4 2 3 5
M  V30 5 1 3 6
M  V30 6 1 4 7
M  V30 7 1 5 8
M  V30 8 1 5 9
M  V30 9 2 6 10
M  V30 10 1 7 11
M  V30 11 1 7 12
M  V30 12 2 9 13
M  V30 13 1 10 14
M  V30 14 1 11 15
M  V30 15 1 12 16
M  V30 16 1 15 17
M  V30 17 1 17 18
M  V30 18 2 18 19
M  V30 19 1 18 20
M  V30 20 1 20 21
M  V30 21 1 21 22
M  V30 22 1 22 23
M  V30 23 1 7 8
M  V30 24 1 10 13
M  V30 25 1 16 17
M  V30 END BOND
M  V30 END CTAB
M  END
>  <Rack>
PathogenBox_PlateD

>  <Position>
E03

>  <Compound ID>
MMV085230

>  <Disease Set>
MALARIA

>  <Trivial Name>


>  <Total Molecular Weight>
316.40

>  <Molecular Weight Parent Molecule>
316.40

>  <Molecular Formula>
C18H24N2O3

>  <Salt Name>


>  <Salt Coefficient>


>  <cLogP>
2.97

>  <SMILES>
CCCNC(=O)N1CCC2(CC1)CC(=O)c3cc(C)ccc3O2

$$$$
Compound 283
Actelion Java MolfileCreator 2.0

  0  0  0  0  0  0              0 V3000
M  V30 BEGIN CTAB
M  V30 COUNTS 26 29 0 0 0
M  V30 BEGIN ATOM
M  V30 1 O 0.866 0.0 0.0 0
M  V30 2 C 1.732 -0.5 0.0 0
M  V30 3 C 0.0 -0.5 0.0 0
M  V30 4 C 1.732 -1.5 0.0 0
M  V30 5 C 2.598 0.0 0.0 0
M  V30 6 N 2.598 -2.0 0.0 0
M  V30 7 C 3.4641 -0.5 0.0 0
M  V30 8 C 3.4641 -1.5 0.0 0
M  V30 9 C 4.3301 0.0 0.0 0
M  V30 10 N 5.1961 -0.5 0.0 0
M  V30 11 C 4.3301 0.9999 0.0 0
M  V30 12 C 6.0621 0.0 0.0 0
M  V30 13 N 5.1961 1.4999 0.0 0
M  V30 14 N 6.9282 -0.5 0.0 0
M  V30 15 C 6.0621 0.9999 0.0 0
M  V30 16 C 6.9282 -1.5 0.0 0
M  V30 17 C 7.7942 0.0 0.0 0
M  V30 18 C 7.7942 -2.0 0.0 0
M  V30 19 C 8.6602 -0.5 0.0 0
M  V30 20 N 8.6602 -1.5 0.0 0
M  V30 21 C 9.5262 -2.0 0.0 0
M  V30 22 C 9.5262 -3.0 0.0 0
M  V30 23 C 10.3923 -1.5 0.0 0
M  V30 24 C 10.3923 -3.5 0.0 0
M  V30 25 C 11.2583 -2.0 0.0 0
M  V30 26 N 11.2583 -3.0 0.0 0
M  V30 END ATOM
M  V30 BEGIN BOND
M  V30 1 1 1 2
M  V30 2 1 1 3
M  V30 3 2 2 4
M  V30 4 1 2 5
M  V30 5 1 4 6
M  V30 6 2 5 7
M  V30 7 2 6 8
M  V30 8 1 7 9
M  V30 9 2 9 10
M  V30 10 1 9 11
M  V30 11 1 10 12
M  V30 12 2 11 13
M  V30 13 1 12 14
M  V30 14 2 12 15
M  V30 15 1 14 16
M  V30 16 1 14 17
M  V30 17 1 16 18
M  V30 18 1 17 19
M  V30 19 1 18 20
M  V30 20 1 20 21
M  V30 21 2 21 22
M  V30 22 1 21 23
M  V30 23 1 22 24
M  V30 24 2 23 25
M  V30 25 2 24 26
M  V30 26 1 7 8
M  V30 27 1 13 15
M  V30 28 1 19 20
M  V30 29 1 25 26
M  V30 END BOND
M  V30 END CTAB
M  END
>  <Rack>
PathogenBox_PlateD

>  <Position>
E04

>  <Compound ID>
MMV085071

>  <Disease Set>
MALARIA

>  <Trivial Name>


>  <Total Molecular Weight>
348.41

>  <Molecular Weight Parent Molecule>
348.41

>  <Molecular Formula>
C19H20N6O

>  <Salt Name>


>  <Salt Coefficient>


>  <cLogP>
0.96

>  <SMILES>
COc1cncc(c1)c2cncc(n2)N3CCN(CC3)c4ccncc4

$$$$
Compound 284
Actelion Java MolfileCreator 2.0

  0  0  0  0  0  0              0 V3000
M  V30 BEGIN CTAB
M  V30 COUNTS 26 29 0 0 0
M  V30 BEGIN ATOM
M  V30 1 Cl 4.1282 0.9906 0.0 0
M  V30 2 C 4.7159 0.1816 0.0 0
M  V30 3 C 4.3092 -0.7318 0.0 0
M  V30 4 C 5.7105 0.2861 0.0 0
M  V30 5 N 4.897 -1.5408 0.0 0
M  V30 6 N 3.3147 -0.8364 0.0 0
M  V30 7 N 6.2982 -0.5228 0.0 0
M  V30 8 C 6.1172 1.1997 0.0 0
M  V30 9 C 5.8915 -1.4363 0.0 0
M  V30 10 C 2.6455 -0.0932 0.0 0
M  V30 11 C 2.8147 -1.7024 0.0 0
M  V30 12 C 6.4793 -2.2453 0.0 0
M  V30 13 C 1.732 -0.5 0.0 0 CFG=2
M  V30 14 C 1.8365 -1.4945 0.0 0
M  V30 15 N 6.0726 -3.1589 0.0 0
M  V30 16 C 7.4738 -2.1408 0.0 0
M  V30 17 C 0.866 0.0 0.0 0
M  V30 18 C 6.6603 -3.9679 0.0 0
M  V30 19 C 8.0616 -2.9498 0.0 0
M  V30 20 C 0.0 -0.5 0.0 0
M  V30 21 C 7.6549 -3.8634 0.0 0
M  V30 22 C -0.866 0.0 0.0 0
M  V30 23 C 0.0 -1.4999 0.0 0
M  V30 24 C -1.732 -0.4999 0.0 0
M  V30 25 C -0.866 -1.9999 0.0 0
M  V30 26 C -1.732 -1.4999 0.0 0
M  V30 END ATOM
M  V30 BEGIN BOND
M  V30 1 1 1 2
M  V30 2 2 2 3
M  V30 3 1 2 4
M  V30 4 1 3 5
M  V30 5 1 3 6
M  V30 6 2 4 7
M  V30 7 1 4 8
M  V30 8 2 5 9
M  V30 9 1 6 10
M  V30 10 1 6 11
M  V30 11 1 9 12
M  V30 12 1 13 10
M  V30 13 1 11 14
M  V30 14 2 12 15
M  V30 15 1 12 16
M  V30 16 1 13 17 CFG=3
M  V30 17 1 15 18
M  V30 18 2 16 19
M  V30 19 1 17 20
M  V30 20 2 18 21
M  V30 21 2 20 22
M  V30 22 1 20 23
M  V30 23 1 22 24
M  V30 24 2 23 25
M  V30 25 2 24 26
M  V30 26 1 7 9
M  V30 27 1 13 14
M  V30 28 1 19 21
M  V30 29 1 25 26
M  V30 END BOND
M  V30 BEGIN COLLECTION
M  V30 MDLV30/STERAC1 ATOMS=(1 13)
M  V30 END COLLECTION
M  V30 END CTAB
M  END
>  <Rack>
PathogenBox_PlateD

>  <Position>
E05

>  <Compound ID>
MMV659004

>  <Disease Set>
KINETOPLASTIDS

>  <Trivial Name>


>  <Total Molecular Weight>
364.88

>  <Molecular Weight Parent Molecule>
364.88

>  <Molecular Formula>
C21H21N4Cl

>  <Salt Name>


>  <Salt Coefficient>


>  <cLogP>
4.39

>  <SMILES>
Cc1nc(nc(N2CCC(Cc3ccccc3)C2)c1Cl)c4ccccn4

$$$$
Compound 285
Actelion Java MolfileCreator 2.0

  0  0  0  0  0  0              0 V3000
M  V30 BEGIN CTAB
M  V30 COUNTS 24 27 0 0 0
M  V30 BEGIN ATOM
M  V30 1 F 5.1961 -0.75 0.0 0
M  V30 2 C 3.8971 0.0 0.0 0
M  V30 3 C 3.8971 1.4999 0.0 0
M  V30 4 C 2.598 -0.7499 0.0 0
M  V30 5 F 5.1961 2.2499 0.0 0
M  V30 6 C 2.598 2.2499 0.0 0
M  V30 7 C 1.299 0.0 0.0 0
M  V30 8 C 1.299 1.5 0.0 0
M  V30 9 C 0.0 -0.75 0.0 0
M  V30 10 N -1.3703 -0.1398 0.0 0
M  V30 11 N -0.1567 -2.2417 0.0 0
M  V30 12 C -2.374 -1.2546 0.0 0
M  V30 13 C -1.624 -2.5536 0.0 0
M  V30 14 C -3.874 -1.2546 0.0 0
M  V30 15 C -2.374 -3.8526 0.0 0
M  V30 16 C -4.624 -2.5536 0.0 0
M  V30 17 N -3.874 -3.8526 0.0 0
M  V30 18 N -1.624 -5.1517 0.0 0
M  V30 19 C -2.374 -6.4507 0.0 0
M  V30 20 C -0.124 -5.1517 0.0 0
M  V30 21 C -1.624 -7.7498 0.0 0
M  V30 22 C 0.6259 -6.4507 0.0 0
M  V30 23 N -0.124 -7.7498 0.0 0
M  V30 24 C 0.6259 -9.0488 0.0 0
M  V30 END ATOM
M  V30 BEGIN BOND
M  V30 1 1 1 2
M  V30 2 2 2 3
M  V30 3 1 2 4
M  V30 4 1 3 5
M  V30 5 1 3 6
M  V30 6 2 4 7
M  V30 7 2 6 8
M  V30 8 1 7 9
M  V30 9 2 9 10
M  V30 10 1 9 11
M  V30 11 1 10 12
M  V30 12 1 11 13
M  V30 13 1 12 14
M  V30 14 1 13 15
M  V30 15 2 14 16
M  V30 16 2 15 17
M  V30 17 1 15 18
M  V30 18 1 18 19
M  V30 19 1 18 20
M  V30 20 1 19 21
M  V30 21 1 20 22
M  V30 22 1 21 23
M  V30 23 1 23 24
M  V30 24 1 7 8
M  V30 25 2 12 13
M  V30 26 1 16 17
M  V30 27 1 22 23
M  V30 END BOND
M  V30 END CTAB
M  END
>  <Rack>
PathogenBox_PlateD

>  <Position>
E06

>  <Compound ID>
MMV676260

>  <Disease Set>
MALARIA

>  <Trivial Name>


>  <Total Molecular Weight>
329.35

>  <Molecular Weight Parent Molecule>
329.35

>  <Molecular Formula>
C17H17N5F2

>  <Salt Name>


>  <Salt Coefficient>


>  <cLogP>
2.23

>  <SMILES>
CN1CCN(CC1)c2nccc3nc([nH]c23)c4ccc(F)c(F)c4

$$$$
Compound 286
Actelion Java MolfileCreator 2.0

  0  0  0  0  0  0              0 V3000
M  V30 BEGIN CTAB
M  V30 COUNTS 34 38 0 0 0
M  V30 BEGIN ATOM
M  V30 1 O 2.598 0.0 0.0 0
M  V30 2 C 1.732 -0.5 0.0 0
M  V30 3 O 0.866 0.0 0.0 0
M  V30 4 N 1.732 -1.5 0.0 0
M  V30 5 C 0.866 0.9999 0.0 0
M  V30 6 C 0.866 -1.9999 0.0 0
M  V30 7 C 2.598 -1.9999 0.0 0
M  V30 8 C 1.866 1.0 0.0 0
M  V30 9 C 0.866 1.9999 0.0 0
M  V30 10 C -0.1339 0.9999 0.0 0
M  V30 11 C 0.866 -2.9999 0.0 0
M  V30 12 C 2.598 -2.9999 0.0 0
M  V30 13 C 1.732 -3.4999 0.0 0
M  V30 14 C 1.732 -4.5 0.0 0
M  V30 15 N 2.598 -4.9999 0.0 0
M  V30 16 N 2.7026 -5.9945 0.0 0
M  V30 17 C 3.5116 -4.5932 0.0 0
M  V30 18 C 3.6807 -6.2024 0.0 0
M  V30 19 N 3.8206 -3.6422 0.0 0
M  V30 20 C 4.1807 -5.3364 0.0 0
M  V30 21 C 4.0874 -7.1159 0.0 0
M  V30 22 C 4.7987 -3.4342 0.0 0
M  V30 23 C 5.1588 -5.1284 0.0 0
M  V30 24 C 3.4997 -7.9249 0.0 0
M  V30 25 C 5.082 -7.2205 0.0 0
M  V30 26 N 5.4679 -4.1774 0.0 0
M  V30 27 N 5.828 -5.8716 0.0 0
M  V30 28 N 3.9064 -8.8385 0.0 0
M  V30 29 C 5.4887 -8.134 0.0 0
M  V30 30 C 4.9009 -8.943 0.0 0
M  V30 31 C 6.4832 -8.2385 0.0 0
M  V30 32 C 5.3076 -9.8566 0.0 0
M  V30 33 C 6.89 -9.1521 0.0 0
M  V30 34 C 6.3022 -9.9611 0.0 0
M  V30 END ATOM
M  V30 BEGIN BOND
M  V30 1 2 1 2
M  V30 2 1 2 3
M  V30 3 1 2 4
M  V30 4 1 3 5
M  V30 5 1 4 6
M  V30 6 1 4 7
M  V30 7 1 5 8
M  V30 8 1 5 9
M  V30 9 1 5 10
M  V30 10 1 6 11
M  V30 11 1 7 12
M  V30 12 1 11 13
M  V30 13 1 13 14
M  V30 14 1 14 15
M  V30 15 1 15 16
M  V30 16 1 15 17
M  V30 17 2 16 18
M  V30 18 2 17 19
M  V30 19 1 17 20
M  V30 20 1 18 21
M  V30 21 1 19 22
M  V30 22 2 20 23
M  V30 23 1 21 24
M  V30 24 2 21 25
M  V30 25 2 22 26
M  V30 26 1 23 27
M  V30 27 2 24 28
M  V30 28 1 25 29
M  V30 29 1 28 30
M  V30 30 2 29 31
M  V30 31 2 30 32
M  V30 32 1 31 33
M  V30 33 1 32 34
M  V30 34 1 12 13
M  V30 35 1 18 20
M  V30 36 1 23 26
M  V30 37 1 29 30
M  V30 38 2 33 34
M  V30 END BOND
M  V30 END CTAB
M  END
>  <Rack>
PathogenBox_PlateD

>  <Position>
E07

>  <Compound ID>
MMV688364

>  <Disease Set>
TOXOPLASMOSIS

>  <Trivial Name>


>  <Total Molecular Weight>
459.54

>  <Molecular Weight Parent Molecule>
459.54

>  <Molecular Formula>
C25H29N7O2

>  <Salt Name>


>  <Salt Coefficient>


>  <cLogP>
3.45

>  <SMILES>
CC(C)(C)OC(=O)N1CCC(Cn2nc(-c3cnc4ccccc4c3)c3c(N)ncnc23)CC1

$$$$
Compound 287
Actelion Java MolfileCreator 2.0

  0  0  0  0  0  0              0 V3000
M  V30 BEGIN CTAB
M  V30 COUNTS 24 26 0 0 0
M  V30 BEGIN ATOM
M  V30 1 Br 2.8462 2.6933 0.0 0
M  V30 2 C 3.0688 1.7184 0.0 0
M  V30 3 C 2.3357 1.0382 0.0 0
M  V30 4 C 4.0243 1.4236 0.0 0
M  V30 5 C 2.5582 0.0633 0.0 0
M  V30 6 C 4.2469 0.4487 0.0 0
M  V30 7 N 1.732 -0.5 0.0 0
M  V30 8 C 3.5138 -0.2314 0.0 0
M  V30 9 C 1.6573 -1.4972 0.0 0
M  V30 10 C 0.866 0.0 0.0 0
M  V30 11 C 3.8792 -1.1623 0.0 0
M  V30 12 O 0.7264 -1.8625 0.0 0
M  V30 13 C 2.3903 -2.1773 0.0 0
M  V30 14 C 0.0 -0.5 0.0 0
M  V30 15 O 3.3792 -2.0283 0.0 0
M  V30 16 C -0.866 0.0 0.0 0
M  V30 17 C 0.0 -1.4999 0.0 0
M  V30 18 C -1.732 -0.4999 0.0 0
M  V30 19 C -0.866 -1.9999 0.0 0
M  V30 20 C -1.732 -1.4999 0.0 0
M  V30 21 C -2.598 -1.9999 0.0 0
M  V30 22 F -2.098 -2.866 0.0 0
M  V30 23 F -3.4641 -2.4999 0.0 0
M  V30 24 F -3.098 -1.1339 0.0 0
M  V30 END ATOM
M  V30 BEGIN BOND
M  V30 1 1 1 2
M  V30 2 2 2 3
M  V30 3 1 2 4
M  V30 4 1 3 5
M  V30 5 2 4 6
M  V30 6 1 5 7
M  V30 7 2 5 8
M  V30 8 1 7 9
M  V30 9 1 7 10
M  V30 10 1 8 11
M  V30 11 2 9 12
M  V30 12 1 9 13
M  V30 13 1 10 14
M  V30 14 1 11 15
M  V30 15 2 14 16
M  V30 16 1 14 17
M  V30 17 1 16 18
M  V30 18 2 17 19
M  V30 19 2 18 20
M  V30 20 1 20 21
M  V30 21 1 21 22
M  V30 22 1 21 23
M  V30 23 1 21 24
M  V30 24 1 6 8
M  V30 25 1 13 15
M  V30 26 1 19 20
M  V30 END BOND
M  V30 END CTAB
M  END
>  <Rack>
PathogenBox_PlateD

>  <Position>
E08

>  <Compound ID>
MMV032995

>  <Disease Set>
MALARIA

>  <Trivial Name>


>  <Total Molecular Weight>
400.20

>  <Molecular Weight Parent Molecule>
400.20

>  <Molecular Formula>
C17H13NO2BrF3

>  <Salt Name>


>  <Salt Coefficient>


>  <cLogP>
3.26

>  <SMILES>
FC(F)(F)c1ccc(CN2C(=O)COCc3ccc(Br)cc23)cc1

$$$$
Compound 288
Actelion Java MolfileCreator 2.0

  0  0  0  0  0  0              0 V3000
M  V30 BEGIN CTAB
M  V30 COUNTS 28 31 0 0 0
M  V30 BEGIN ATOM
M  V30 1 Cl 6.5586 6.0585 0.0 0
M  V30 2 C 6.5586 4.5439 0.0 0
M  V30 3 C 5.2469 3.7866 0.0 0
M  V30 4 C 7.8703 3.7866 0.0 0
M  V30 5 C 5.2469 2.2719 0.0 0
M  V30 6 C 7.8703 2.2719 0.0 0
M  V30 7 C 6.5586 1.5146 0.0 0
M  V30 8 C 3.9351 1.5146 0.0 0 CFG=2
M  V30 9 N 6.5586 0.0 0.0 0
M  V30 10 O 2.6234 2.2719 0.0 0
M  V30 11 N 3.9351 0.0 0.0 0
M  V30 12 C 2.6234 0.7573 0.0 0
M  V30 13 C 5.2469 -0.7573 0.0 0
M  V30 14 C 2.8071 -0.8032 0.0 0
M  V30 15 C 1.3117 1.5146 0.0 0
M  V30 16 C 2.256 -0.6654 0.0 0
M  V30 17 C 5.2469 -2.2719 0.0 0
M  V30 18 C 2.6234 -2.2719 0.0 0
M  V30 19 C 0.0 0.7573 0.0 0
M  V30 20 C 1.3117 -1.5146 0.0 0
M  V30 21 N 1.3117 -3.0292 0.0 0
M  V30 22 C 0.0 -0.7573 0.0 0
M  V30 23 C 1.3117 -4.5439 0.0 0
M  V30 24 C 0.0 -2.2719 0.0 0
M  V30 25 C -1.3117 -1.5146 0.0 0
M  V30 26 C 0.0 -5.3012 0.0 0
M  V30 27 C -1.3117 -3.0292 0.0 0
M  V30 28 C -1.3117 -4.5439 0.0 0
M  V30 END ATOM
M  V30 BEGIN BOND
M  V30 1 1 1 2
M  V30 2 2 2 3
M  V30 3 1 2 4
M  V30 4 1 3 5
M  V30 5 2 4 6
M  V30 6 2 5 7
M  V30 7 1 8 5
M  V30 8 1 7 9
M  V30 9 1 8 10
M  V30 10 1 8 11
M  V30 11 1 8 12 CFG=3
M  V30 12 2 9 13
M  V30 13 1 11 14
M  V30 14 2 12 15
M  V30 15 1 12 16
M  V30 16 1 13 17
M  V30 17 1 14 18
M  V30 18 1 15 19
M  V30 19 2 16 20
M  V30 20 1 18 21
M  V30 21 2 19 22
M  V30 22 1 21 23
M  V30 23 1 21 24
M  V30 24 1 22 25
M  V30 25 1 23 26
M  V30 26 1 24 27
M  V30 27 1 26 28
M  V30 28 1 6 7
M  V30 29 1 11 13
M  V30 30 1 20 22
M  V30 31 1 27 28
M  V30 END BOND
M  V30 BEGIN COLLECTION
M  V30 MDLV30/STERAC1 ATOMS=(1 8)
M  V30 END COLLECTION
M  V30 END CTAB
M  END
>  <Rack>
PathogenBox_PlateD

>  <Position>
E09

>  <Compound ID>
MMV688279

>  <Disease Set>
KINETOPLASTIDS

>  <Trivial Name>


>  <Total Molecular Weight>
397.94

>  <Molecular Weight Parent Molecule>
397.94

>  <Molecular Formula>
C23H28N3OCl

>  <Salt Name>


>  <Salt Coefficient>


>  <cLogP>
4.66

>  <SMILES>
CC1=Nc2ccc(Cl)cc2C(O)(N1CCN3CCCCC3)c4ccc(C)cc4

$$$$
Compound 289
Actelion Java MolfileCreator 2.0

  0  0  0  0  0  0              0 V3000
M  V30 BEGIN CTAB
M  V30 COUNTS 27 29 0 0 0
M  V30 BEGIN ATOM
M  V30 1 Cl 1.732 1.4999 0.0 0
M  V30 2 C 2.598 1.0 0.0 0
M  V30 3 C 2.598 0.0 0.0 0
M  V30 4 C 3.4641 1.4999 0.0 0
M  V30 5 N 1.732 -0.5 0.0 0
M  V30 6 C 3.4641 -0.5 0.0 0
M  V30 7 C 4.3301 1.0 0.0 0
M  V30 8 C 0.866 0.0 0.0 0
M  V30 9 C 4.3301 0.0 0.0 0
M  V30 10 C 5.1961 1.5 0.0 0
M  V30 11 N 0.866 1.0 0.0 0
M  V30 12 N 0.0 -0.5 0.0 0
M  V30 13 O 6.1096 1.0932 0.0 0
M  V30 14 C 5.3006 2.4945 0.0 0
M  V30 15 C 6.7788 1.8364 0.0 0
M  V30 16 C 6.2788 2.7024 0.0 0
M  V30 17 C 7.7733 1.7318 0.0 0
M  V30 18 C 8.18 0.8183 0.0 0
M  V30 19 C 8.3611 2.5408 0.0 0
M  V30 20 C 9.1746 0.7138 0.0 0
M  V30 21 C 9.3556 2.4363 0.0 0
M  V30 22 Cl 9.5813 -0.1997 0.0 0
M  V30 23 C 9.7623 1.5228 0.0 0
M  V30 24 N 10.7569 1.4182 0.0 0
M  V30 25 C 11.1636 0.5047 0.0 0
M  V30 26 N 10.5758 -0.3042 0.0 0
M  V30 27 N 12.1581 0.4002 0.0 0
M  V30 END ATOM
M  V30 BEGIN BOND
M  V30 1 1 1 2
M  V30 2 2 2 3
M  V30 3 1 2 4
M  V30 4 1 3 5
M  V30 5 1 3 6
M  V30 6 2 4 7
M  V30 7 2 5 8
M  V30 8 2 6 9
M  V30 9 1 7 10
M  V30 10 1 8 11
M  V30 11 1 8 12
M  V30 12 1 10 13
M  V30 13 2 10 14
M  V30 14 1 13 15
M  V30 15 1 14 16
M  V30 16 1 15 17
M  V30 17 2 17 18
M  V30 18 1 17 19
M  V30 19 1 18 20
M  V30 20 2 19 21
M  V30 21 1 20 22
M  V30 22 2 20 23
M  V30 23 1 23 24
M  V30 24 1 24 25
M  V30 25 2 25 26
M  V30 26 1 25 27
M  V30 27 1 7 9
M  V30 28 2 15 16
M  V30 29 1 21 23
M  V30 END BOND
M  V30 END CTAB
M  END
>  <Rack>
PathogenBox_PlateD

>  <Position>
E10

>  <Compound ID>
MMV688271

>  <Disease Set>
KINETOPLASTIDS

>  <Trivial Name>


>  <Total Molecular Weight>
476.19

>  <Molecular Weight Parent Molecule>
403.27

>  <Molecular Formula>
C18H16N6OCl2

>  <Salt Name>
Hydrochloride

>  <Salt Coefficient>
2

>  <cLogP>
2.65

>  <SMILES>
NC(=N)Nc1ccc(cc1Cl)c2oc(cc2)c3ccc(N=C(N)N)c(Cl)c3

$$$$
Compound 290
Actelion Java MolfileCreator 2.0

  0  0  0  0  0  0              0 V3000
M  V30 BEGIN CTAB
M  V30 COUNTS 28 31 0 0 0
M  V30 BEGIN ATOM
M  V30 1 O 1.732 2.5 0.0 0
M  V30 2 C 1.732 1.5 0.0 0
M  V30 3 N 0.866 1.0 0.0 0
M  V30 4 C 2.598 1.0 0.0 0
M  V30 5 C 0.866 0.0 0.0 0
M  V30 6 C 3.4641 1.4999 0.0 0
M  V30 7 C 2.598 0.0 0.0 0
M  V30 8 C 0.0 -0.4999 0.0 0
M  V30 9 C 1.732 -0.5 0.0 0
M  V30 10 O 3.4641 2.4999 0.0 0
M  V30 11 C 4.3301 0.9999 0.0 0
M  V30 12 C 3.4641 -0.5 0.0 0
M  V30 13 C 0.0 -1.4999 0.0 0
M  V30 14 C 1.732 -1.5 0.0 0
M  V30 15 C 2.598 3.0 0.0 0
M  V30 16 C 4.3301 0.0 0.0 0
M  V30 17 C -0.866 -1.9999 0.0 0
M  V30 18 C 0.866 -1.9999 0.0 0
M  V30 19 C 2.598 4.0 0.0 0
M  V30 20 N -1.7795 -1.5932 0.0 0
M  V30 21 C -0.9705 -2.9945 0.0 0
M  V30 22 C -2.4487 -2.3364 0.0 0
M  V30 23 N -1.9487 -3.2024 0.0 0
M  V30 24 C -0.2274 -3.6636 0.0 0
M  V30 25 N -3.4487 -2.3364 0.0 0
M  V30 26 C -2.4487 -4.0684 0.0 0
M  V30 27 C -3.9487 -3.2024 0.0 0
M  V30 28 C -3.4487 -4.0684 0.0 0
M  V30 END ATOM
M  V30 BEGIN BOND
M  V30 1 2 1 2
M  V30 2 1 2 3
M  V30 3 1 2 4
M  V30 4 1 3 5
M  V30 5 2 4 6
M  V30 6 1 4 7
M  V30 7 2 5 8
M  V30 8 1 5 9
M  V30 9 1 6 10
M  V30 10 1 6 11
M  V30 11 2 7 12
M  V30 12 1 8 13
M  V30 13 2 9 14
M  V30 14 1 10 15
M  V30 15 2 11 16
M  V30 16 1 13 17
M  V30 17 2 13 18
M  V30 18 1 15 19
M  V30 19 1 17 20
M  V30 20 2 17 21
M  V30 21 2 20 22
M  V30 22 1 21 23
M  V30 23 1 21 24
M  V30 24 1 22 25
M  V30 25 1 23 26
M  V30 26 2 25 27
M  V30 27 2 26 28
M  V30 28 1 12 16
M  V30 29 1 14 18
M  V30 30 1 22 23
M  V30 31 1 27 28
M  V30 END BOND
M  V30 END CTAB
M  END
>  <Rack>
PathogenBox_PlateD

>  <Position>
E11

>  <Compound ID>
MMV019790

>  <Disease Set>
MALARIA

>  <Trivial Name>


>  <Total Molecular Weight>
372.43

>  <Molecular Weight Parent Molecule>
372.43

>  <Molecular Formula>
C22H20N4O2

>  <Salt Name>


>  <Salt Coefficient>


>  <cLogP>
3.49

>  <SMILES>
CCOc1ccccc1C(=O)Nc2cccc(c2)c3nc4ncccn4c3C

$$$$
Compound 291
Actelion Java MolfileCreator 2.0

  0  0  0  0  0  0              0 V3000
M  V30 BEGIN CTAB
M  V30 COUNTS 29 33 0 0 0
M  V30 BEGIN ATOM
M  V30 1 O 1.732 -0.5 0.0 0
M  V30 2 C 0.866 0.0 0.0 0
M  V30 3 N 0.866 1.0 0.0 0
M  V30 4 C 0.0 -0.5 0.0 0
M  V30 5 C 1.732 1.4999 0.0 0
M  V30 6 C 0.0 1.4999 0.0 0
M  V30 7 C -0.866 0.0 0.0 0
M  V30 8 C 0.0 -1.4999 0.0 0
M  V30 9 C 1.732 2.5 0.0 0
M  V30 10 C 0.0 2.5 0.0 0
M  V30 11 C -1.732 -0.4999 0.0 0
M  V30 12 C -0.866 -1.9999 0.0 0
M  V30 13 C 0.866 3.0 0.0 0
M  V30 14 C 2.598 2.9999 0.0 0
M  V30 15 N -1.732 -1.4999 0.0 0
M  V30 16 C 0.866 4.0 0.0 0
M  V30 17 C 2.598 4.0 0.0 0
M  V30 18 C -2.598 -1.9999 0.0 0
M  V30 19 C 1.732 4.5 0.0 0
M  V30 20 N -3.5116 -1.5932 0.0 0
M  V30 21 N -2.7026 -2.9945 0.0 0
M  V30 22 N -4.1807 -2.3364 0.0 0
M  V30 23 N -3.6807 -3.2024 0.0 0
M  V30 24 C -1.9594 -3.6636 0.0 0
M  V30 25 C -2.1673 -4.6418 0.0 0
M  V30 26 C -1.0084 -3.3546 0.0 0
M  V30 27 C -1.4242 -5.3109 0.0 0
M  V30 28 C -0.2652 -4.0237 0.0 0
M  V30 29 C -0.4731 -5.0019 0.0 0
M  V30 END ATOM
M  V30 BEGIN BOND
M  V30 1 2 1 2
M  V30 2 1 2 3
M  V30 3 1 2 4
M  V30 4 1 3 5
M  V30 5 1 3 6
M  V30 6 1 4 7
M  V30 7 1 4 8
M  V30 8 1 5 9
M  V30 9 1 6 10
M  V30 10 1 7 11
M  V30 11 1 8 12
M  V30 12 2 9 13
M  V30 13 1 9 14
M  V30 14 1 11 15
M  V30 15 1 13 16
M  V30 16 2 14 17
M  V30 17 1 15 18
M  V30 18 2 16 19
M  V30 19 2 18 20
M  V30 20 1 18 21
M  V30 21 1 20 22
M  V30 22 1 21 23
M  V30 23 1 21 24
M  V30 24 2 24 25
M  V30 25 1 24 26
M  V30 26 1 25 27
M  V30 27 2 26 28
M  V30 28 2 27 29
M  V30 29 1 10 13
M  V30 30 1 12 15
M  V30 31 1 17 19
M  V30 32 2 22 23
M  V30 33 1 28 29
M  V30 END BOND
M  V30 END CTAB
M  END
>  <Rack>
PathogenBox_PlateD

>  <Position>
F02

>  <Compound ID>
MMV009135

>  <Disease Set>
MALARIA

>  <Trivial Name>


>  <Total Molecular Weight>
388.47

>  <Molecular Weight Parent Molecule>
388.47

>  <Molecular Formula>
C22H24N6O

>  <Salt Name>


>  <Salt Coefficient>


>  <cLogP>
2.49

>  <SMILES>
O=C(C1CCN(CC1)c2nnnn2c3ccccc3)N4CCc5ccccc5C4

$$$$
Compound 292
Actelion Java MolfileCreator 2.0

  0  0  0  0  0  0              0 V3000
M  V30 BEGIN CTAB
M  V30 COUNTS 23 25 0 0 0
M  V30 BEGIN ATOM
M  V30 1 Cl 2.598 1.0 0.0 0
M  V30 2 C 2.598 0.0 0.0 0
M  V30 3 C 1.732 -0.5 0.0 0
M  V30 4 C 3.4641 -0.4999 0.0 0
M  V30 5 S 0.866 0.0 0.0 0
M  V30 6 N 1.732 -1.5 0.0 0
M  V30 7 C 3.4641 -1.4999 0.0 0
M  V30 8 C 0.0 -0.5 0.0 0
M  V30 9 C 2.598 -1.9999 0.0 0
M  V30 10 C 4.3301 -1.9999 0.0 0
M  V30 11 O -0.9135 -0.0932 0.0 0
M  V30 12 N -0.1045 -1.4945 0.0 0
M  V30 13 F 4.8301 -1.1339 0.0 0
M  V30 14 F 5.1961 -2.4999 0.0 0
M  V30 15 F 3.8301 -2.866 0.0 0
M  V30 16 C -1.5826 -0.8364 0.0 0
M  V30 17 N -1.0826 -1.7024 0.0 0
M  V30 18 C -2.5771 -0.7318 0.0 0
M  V30 19 C -2.9839 0.1816 0.0 0
M  V30 20 C -3.1649 -1.5408 0.0 0
M  V30 21 C -3.9784 0.2861 0.0 0
M  V30 22 C -4.1595 -1.4363 0.0 0
M  V30 23 N -4.5662 -0.5228 0.0 0
M  V30 END ATOM
M  V30 BEGIN BOND
M  V30 1 1 1 2
M  V30 2 2 2 3
M  V30 3 1 2 4
M  V30 4 1 3 5
M  V30 5 1 3 6
M  V30 6 2 4 7
M  V30 7 1 5 8
M  V30 8 2 6 9
M  V30 9 1 7 10
M  V30 10 1 8 11
M  V30 11 2 8 12
M  V30 12 1 10 13
M  V30 13 1 10 14
M  V30 14 1 10 15
M  V30 15 1 11 16
M  V30 16 1 12 17
M  V30 17 1 16 18
M  V30 18 2 18 19
M  V30 19 1 18 20
M  V30 20 1 19 21
M  V30 21 2 20 22
M  V30 22 2 21 23
M  V30 23 1 7 9
M  V30 24 2 16 17
M  V30 25 1 22 23
M  V30 END BOND
M  V30 END CTAB
M  END
>  <Rack>
PathogenBox_PlateD

>  <Position>
F03

>  <Compound ID>
MMV011765

>  <Disease Set>
MALARIA

>  <Trivial Name>


>  <Total Molecular Weight>
358.73

>  <Molecular Weight Parent Molecule>
358.73

>  <Molecular Formula>
C13H6N4OClF3S

>  <Salt Name>


>  <Salt Coefficient>


>  <cLogP>
3.10

>  <SMILES>
FC(F)(F)c1cnc(Sc2oc(nn2)c3ccncc3)c(Cl)c1

$$$$
Compound 293
Actelion Java MolfileCreator 2.0

  0  0  0  0  0  0              0 V3000
M  V30 BEGIN CTAB
M  V30 COUNTS 30 33 0 0 0
M  V30 BEGIN ATOM
M  V30 1 F 4.6976 -1.1769 0.0 0
M  V30 2 C 3.7195 -1.3848 0.0 0
M  V30 3 F 3.9274 -2.363 0.0 0
M  V30 4 F 2.7413 -1.5927 0.0 0
M  V30 5 C 3.5116 -0.4067 0.0 0
M  V30 6 N 4.1807 0.3364 0.0 0
M  V30 7 C 2.598 0.0 0.0 0
M  V30 8 C 3.6807 1.2024 0.0 0
M  V30 9 O 2.7026 0.9945 0.0 0
M  V30 10 C 1.732 -0.5 0.0 0
M  V30 11 C 4.0874 2.1159 0.0 0
M  V30 12 O 1.732 -1.5 0.0 0
M  V30 13 N 0.866 0.0 0.0 0
M  V30 14 C 5.082 2.2205 0.0 0
M  V30 15 C 3.4997 2.9249 0.0 0
M  V30 16 C 0.0 -0.5 0.0 0
M  V30 17 C 5.4887 3.134 0.0 0
M  V30 18 C 3.9064 3.8385 0.0 0
M  V30 19 C -0.866 0.0 0.0 0
M  V30 20 C 0.0 -1.4999 0.0 0
M  V30 21 C 4.9009 3.943 0.0 0
M  V30 22 N -1.732 -0.4999 0.0 0
M  V30 23 C -0.866 -1.9999 0.0 0
M  V30 24 C -1.732 -1.4999 0.0 0
M  V30 25 N -2.598 -1.9999 0.0 0
M  V30 26 C -3.4641 -1.4999 0.0 0
M  V30 27 C -2.598 -2.9999 0.0 0
M  V30 28 C -4.3301 -1.9999 0.0 0
M  V30 29 C -3.4641 -3.4999 0.0 0
M  V30 30 N -4.3301 -2.9999 0.0 0
M  V30 END ATOM
M  V30 BEGIN BOND
M  V30 1 1 1 2
M  V30 2 1 2 3
M  V30 3 1 2 4
M  V30 4 1 2 5
M  V30 5 1 5 6
M  V30 6 2 5 7
M  V30 7 2 6 8
M  V30 8 1 7 9
M  V30 9 1 7 10
M  V30 10 1 8 11
M  V30 11 2 10 12
M  V30 12 1 10 13
M  V30 13 2 11 14
M  V30 14 1 11 15
M  V30 15 1 13 16
M  V30 16 1 14 17
M  V30 17 2 15 18
M  V30 18 2 16 19
M  V30 19 1 16 20
M  V30 20 2 17 21
M  V30 21 1 19 22
M  V30 22 2 20 23
M  V30 23 2 22 24
M  V30 24 1 24 25
M  V30 25 1 25 26
M  V30 26 1 25 27
M  V30 27 1 26 28
M  V30 28 1 27 29
M  V30 29 1 28 30
M  V30 30 1 8 9
M  V30 31 1 18 21
M  V30 32 1 23 24
M  V30 33 1 29 30
M  V30 END BOND
M  V30 END CTAB
M  END
>  <Rack>
PathogenBox_PlateD

>  <Position>
F04

>  <Compound ID>
MMV024937

>  <Disease Set>
MALARIA

>  <Trivial Name>


>  <Total Molecular Weight>
453.85

>  <Molecular Weight Parent Molecule>
417.39

>  <Molecular Formula>
C20H18N5O2F3

>  <Salt Name>
Hydrochloride

>  <Salt Coefficient>
1

>  <cLogP>
2.85

>  <SMILES>
FC(F)(F)c1nc(oc1C(=O)Nc2ccc(nc2)N3CCNCC3)c4ccccc4

$$$$
Compound 294
Actelion Java MolfileCreator 2.0

  0  0  0  0  0  0              0 V3000
M  V30 BEGIN CTAB
M  V30 COUNTS 24 26 0 0 0
M  V30 BEGIN ATOM
M  V30 1 O 1.732 -0.5 0.0 0
M  V30 2 C 0.866 0.0 0.0 0
M  V30 3 N 0.866 1.0 0.0 0
M  V30 4 C 0.0 -0.5 0.0 0
M  V30 5 C -0.866 0.0 0.0 0
M  V30 6 C 0.0 -1.4999 0.0 0
M  V30 7 C -1.732 -0.4999 0.0 0
M  V30 8 C -0.866 -1.9999 0.0 0
M  V30 9 C -1.732 -1.4999 0.0 0
M  V30 10 C -2.598 -1.9999 0.0 0
M  V30 11 N -3.4641 -1.4999 0.0 0
M  V30 12 C -2.598 -2.9999 0.0 0
M  V30 13 C -4.3301 -1.9999 0.0 0
M  V30 14 N -3.4641 -3.4999 0.0 0
M  V30 15 N -1.732 -3.4999 0.0 0
M  V30 16 C -5.1961 -1.4999 0.0 0
M  V30 17 C -4.3301 -2.9999 0.0 0
M  V30 18 C -5.1961 -0.4999 0.0 0
M  V30 19 C -6.0621 -1.9999 0.0 0
M  V30 20 C -6.0621 0.0 0.0 0
M  V30 21 C -6.9282 -1.4999 0.0 0
M  V30 22 C -6.9282 -0.4999 0.0 0
M  V30 23 C -7.7942 0.0 0.0 0
M  V30 24 N -8.6602 0.5 0.0 0
M  V30 END ATOM
M  V30 BEGIN BOND
M  V30 1 2 1 2
M  V30 2 1 2 3
M  V30 3 1 2 4
M  V30 4 2 4 5
M  V30 5 1 4 6
M  V30 6 1 5 7
M  V30 7 2 6 8
M  V30 8 2 7 9
M  V30 9 1 9 10
M  V30 10 2 10 11
M  V30 11 1 10 12
M  V30 12 1 11 13
M  V30 13 2 12 14
M  V30 14 1 12 15
M  V30 15 1 13 16
M  V30 16 2 13 17
M  V30 17 2 16 18
M  V30 18 1 16 19
M  V30 19 1 18 20
M  V30 20 2 19 21
M  V30 21 2 20 22
M  V30 22 1 22 23
M  V30 23 3 23 24
M  V30 24 1 8 9
M  V30 25 1 14 17
M  V30 26 1 21 22
M  V30 END BOND
M  V30 END CTAB
M  END
>  <Rack>
PathogenBox_PlateD

>  <Position>
F05

>  <Compound ID>
MMV085499

>  <Disease Set>
MALARIA

>  <Trivial Name>


>  <Total Molecular Weight>
315.34

>  <Molecular Weight Parent Molecule>
315.34

>  <Molecular Formula>
C18H13N5O

>  <Salt Name>


>  <Salt Coefficient>


>  <cLogP>
1.76

>  <SMILES>
NC(=O)c1ccc(cc1)c2nc(cnc2N)c3ccc(cc3)C#N

$$$$
Compound 295
Actelion Java MolfileCreator 2.0

  0  0  0  0  0  0              0 V3000
M  V30 BEGIN CTAB
M  V30 COUNTS 24 27 0 0 0
M  V30 BEGIN ATOM
M  V30 1 O 0.866 0.0 0.0 0
M  V30 2 C 1.732 -0.5 0.0 0
M  V30 3 C 0.0 -0.5 0.0 0
M  V30 4 C 1.732 -1.5 0.0 0
M  V30 5 C 2.598 0.0 0.0 0
M  V30 6 O 0.866 -1.9999 0.0 0
M  V30 7 C 2.598 -2.0 0.0 0
M  V30 8 C 3.4641 -0.5 0.0 0
M  V30 9 C 0.866 -2.9999 0.0 0
M  V30 10 C 3.4641 -1.5 0.0 0
M  V30 11 C 4.3301 0.0 0.0 0
M  V30 12 N 5.2436 -0.4067 0.0 0
M  V30 13 C 4.4346 0.9945 0.0 0
M  V30 14 N 5.5526 -1.3577 0.0 0
M  V30 15 C 5.9128 0.3364 0.0 0
M  V30 16 N 5.4128 1.2024 0.0 0
M  V30 17 C 6.5308 -1.5657 0.0 0
M  V30 18 C 6.8909 0.1284 0.0 0
M  V30 19 N 6.8398 -2.5167 0.0 0
M  V30 20 C 7.1999 -0.8225 0.0 0
M  V30 21 C 6.252 -3.3257 0.0 0
M  V30 22 C 7.7909 -2.8257 0.0 0
M  V30 23 C 6.8398 -4.1347 0.0 0
M  V30 24 C 7.7909 -3.8257 0.0 0
M  V30 END ATOM
M  V30 BEGIN BOND
M  V30 1 1 1 2
M  V30 2 1 1 3
M  V30 3 2 2 4
M  V30 4 1 2 5
M  V30 5 1 4 6
M  V30 6 1 4 7
M  V30 7 2 5 8
M  V30 8 1 6 9
M  V30 9 2 7 10
M  V30 10 1 8 11
M  V30 11 1 11 12
M  V30 12 2 11 13
M  V30 13 1 12 14
M  V30 14 1 12 15
M  V30 15 1 13 16
M  V30 16 2 14 17
M  V30 17 1 15 18
M  V30 18 1 17 19
M  V30 19 1 17 20
M  V30 20 1 19 21
M  V30 21 1 19 22
M  V30 22 1 21 23
M  V30 23 1 22 24
M  V30 24 1 8 10
M  V30 25 2 15 16
M  V30 26 2 18 20
M  V30 27 1 23 24
M  V30 END BOND
M  V30 END CTAB
M  END
>  <Rack>
PathogenBox_PlateD

>  <Position>
F06

>  <Compound ID>
MMV023985

>  <Disease Set>
MALARIA

>  <Trivial Name>


>  <Total Molecular Weight>
324.38

>  <Molecular Weight Parent Molecule>
324.38

>  <Molecular Formula>
C18H20N4O2

>  <Salt Name>


>  <Salt Coefficient>


>  <cLogP>
2.01

>  <SMILES>
COc1ccc(cc1OC)c2cnc3ccc(nn23)N4CCCC4

$$$$
Compound 296
Actelion Java MolfileCreator 2.0

  0  0  0  0  0  0              0 V3000
M  V30 BEGIN CTAB
M  V30 COUNTS 30 33 0 0 0
M  V30 BEGIN ATOM
M  V30 1 S 8.6667 0.5606 0.0 0
M  V30 2 C 8.9038 -0.4108 0.0 0
M  V30 3 C 9.5174 1.0863 0.0 0
M  V30 4 C 8.3405 -1.237 0.0 0
M  V30 5 C 9.901 -0.4855 0.0 0
M  V30 6 C 9.5921 2.0835 0.0 0
M  V30 7 C 10.2802 0.4397 0.0 0
M  V30 8 N 8.7743 -2.138 0.0 0
M  V30 9 N 7.3433 -1.1623 0.0 0
M  V30 10 N 10.3349 -1.3864 0.0 0
M  V30 11 C 10.4931 2.5174 0.0 0
M  V30 12 C 8.7659 2.6468 0.0 0
M  V30 13 C 9.7715 -2.2127 0.0 0
M  V30 14 C 6.9779 -0.2314 0.0 0
M  V30 15 C 6.8433 -2.0283 0.0 0
M  V30 16 C 10.5678 3.5146 0.0 0
M  V30 17 C 8.8406 3.6441 0.0 0
M  V30 18 C 6.0223 0.0633 0.0 0
M  V30 19 C 5.8544 -2.1773 0.0 0
M  V30 20 C 9.7416 4.0779 0.0 0
M  V30 21 N 5.1961 -0.5 0.0 0
M  V30 22 C 5.1214 -1.4972 0.0 0
M  V30 23 C 4.3301 0.0 0.0 0
M  V30 24 O 4.3301 1.0 0.0 0
M  V30 25 N 3.4641 -0.5 0.0 0
M  V30 26 C 2.598 0.0 0.0 0
M  V30 27 C 1.732 -0.5 0.0 0
M  V30 28 N 0.866 0.0 0.0 0
M  V30 29 C 0.866 1.0 0.0 0
M  V30 30 C 0.0 -0.5 0.0 0
M  V30 END ATOM
M  V30 BEGIN BOND
M  V30 1 1 1 2
M  V30 2 1 1 3
M  V30 3 2 2 4
M  V30 4 1 2 5
M  V30 5 1 3 6
M  V30 6 2 3 7
M  V30 7 1 4 8
M  V30 8 1 4 9
M  V30 9 2 5 10
M  V30 10 2 6 11
M  V30 11 1 6 12
M  V30 12 2 8 13
M  V30 13 1 9 14
M  V30 14 1 9 15
M  V30 15 1 11 16
M  V30 16 2 12 17
M  V30 17 1 14 18
M  V30 18 1 15 19
M  V30 19 2 16 20
M  V30 20 1 18 21
M  V30 21 1 19 22
M  V30 22 1 21 23
M  V30 23 2 23 24
M  V30 24 1 23 25
M  V30 25 1 25 26
M  V30 26 1 26 27
M  V30 27 1 27 28
M  V30 28 1 28 29
M  V30 29 1 28 30
M  V30 30 1 5 7
M  V30 31 1 10 13
M  V30 32 1 17 20
M  V30 33 1 21 22
M  V30 END BOND
M  V30 END CTAB
M  END
>  <Rack>
PathogenBox_PlateD

>  <Position>
F07

>  <Compound ID>
MMV024195

>  <Disease Set>
MALARIA

>  <Trivial Name>


>  <Total Molecular Weight>
424.57

>  <Molecular Weight Parent Molecule>
424.57

>  <Molecular Formula>
C22H28N6OS

>  <Salt Name>


>  <Salt Coefficient>


>  <cLogP>
2.91

>  <SMILES>
CN(C)CCNC(=O)N1CCCN(CC1)c2ncnc3cc(sc23)c4ccccc4

$$$$
Compound 297
Actelion Java MolfileCreator 2.0

  0  0  0  0  0  0              0 V3000
M  V30 BEGIN CTAB
M  V30 COUNTS 36 39 0 0 0
M  V30 BEGIN ATOM
M  V30 1 F 4.3301 -2.9999 0.0 0
M  V30 2 C 4.3301 -1.9999 0.0 0
M  V30 3 C 5.1961 -1.5 0.0 0
M  V30 4 C 3.4641 -1.5 0.0 0
M  V30 5 O 6.0621 -2.0 0.0 0
M  V30 6 C 5.1961 -0.5 0.0 0
M  V30 7 C 3.4641 -0.5 0.0 0
M  V30 8 C 6.9282 -1.5 0.0 0 CFG=2
M  V30 9 C 4.3301 0.0 0.0 0
M  V30 10 N 2.598 0.0 0.0 0
M  V30 11 C 7.7942 -2.0 0.0 0 CFG=1
M  V30 12 C 6.9282 -0.5 0.0 0
M  V30 13 C 1.732 -0.5 0.0 0
M  V30 14 N 7.7942 -3.0 0.0 0
M  V30 15 C 8.6602 -1.5 0.0 0
M  V30 16 C 7.7942 0.0 0.0 0
M  V30 17 O 1.732 -1.5 0.0 0
M  V30 18 N 0.866 0.0 0.0 0
M  V30 19 C 6.9282 -3.5 0.0 0
M  V30 20 C 8.6602 -3.5 0.0 0
M  V30 21 C 8.6602 -0.5 0.0 0
M  V30 22 C 0.0 -0.5 0.0 0
M  V30 23 C 6.0621 -3.0 0.0 0
M  V30 24 C 6.9282 -4.5 0.0 0
M  V30 25 C -0.866 0.0 0.0 0
M  V30 26 C 0.0 -1.4999 0.0 0
M  V30 27 C 5.1961 -3.4999 0.0 0
M  V30 28 C 6.0621 -5.0 0.0 0
M  V30 29 C -1.732 -0.4999 0.0 0
M  V30 30 C -0.866 -1.9999 0.0 0
M  V30 31 C 5.1961 -4.5 0.0 0
M  V30 32 C -1.732 -1.4999 0.0 0
M  V30 33 C -2.598 -1.9999 0.0 0
M  V30 34 C -2.598 -2.9999 0.0 0
M  V30 35 C -3.4641 -3.4999 0.0 0
M  V30 36 C -3.4641 -4.4999 0.0 0
M  V30 END ATOM
M  V30 BEGIN BOND
M  V30 1 1 1 2
M  V30 2 2 2 3
M  V30 3 1 2 4
M  V30 4 1 3 5
M  V30 5 1 3 6
M  V30 6 2 4 7
M  V30 7 1 8 5 CFG=1
M  V30 8 2 6 9
M  V30 9 1 7 10
M  V30 10 1 11 8
M  V30 11 1 8 12
M  V30 12 1 10 13
M  V30 13 1 11 14 CFG=3
M  V30 14 1 11 15
M  V30 15 1 12 16
M  V30 16 2 13 17
M  V30 17 1 13 18
M  V30 18 1 14 19
M  V30 19 1 14 20
M  V30 20 1 15 21
M  V30 21 1 18 22
M  V30 22 2 19 23
M  V30 23 1 19 24
M  V30 24 2 22 25
M  V30 25 1 22 26
M  V30 26 1 23 27
M  V30 27 2 24 28
M  V30 28 1 25 29
M  V30 29 2 26 30
M  V30 30 2 27 31
M  V30 31 2 29 32
M  V30 32 1 32 33
M  V30 33 1 33 34
M  V30 34 1 34 35
M  V30 35 1 35 36
M  V30 36 1 7 9
M  V30 37 1 16 21
M  V30 38 1 28 31
M  V30 39 1 30 32
M  V30 END BOND
M  V30 BEGIN COLLECTION
M  V30 MDLV30/STEABS ATOMS=(2 8 11)
M  V30 END COLLECTION
M  V30 END CTAB
M  END
>  <Rack>
PathogenBox_PlateD

>  <Position>
F08

>  <Compound ID>
MMV676063

>  <Disease Set>
ONCHOCERCIASIS

>  <Trivial Name>


>  <Total Molecular Weight>
489.62

>  <Molecular Weight Parent Molecule>
489.62

>  <Molecular Formula>
C30H36N3O2F

>  <Salt Name>


>  <Salt Coefficient>


>  <cLogP>
7.12

>  <SMILES>
CCCCc1ccc(NC(=O)Nc2ccc(O[C@H]3CCCC[C@@H]3N(C)c4ccccc4)c(F)c2)cc1

$$$$
Compound 298
Actelion Java MolfileCreator 2.0

  0  0  0  0  0  0              0 V3000
M  V30 BEGIN CTAB
M  V30 COUNTS 35 39 0 0 0
M  V30 BEGIN ATOM
M  V30 1 O -2.3506 0.9703 0.0 0
M  V30 2 C -1.3506 0.9703 0.0 0
M  V30 3 O -0.8506 0.1043 0.0 0
M  V30 4 C -0.8506 1.8364 0.0 0
M  V30 5 C 0.1493 0.1043 0.0 0
M  V30 6 C 0.1493 1.8364 0.0 0
M  V30 7 C -1.3506 2.7024 0.0 0
M  V30 8 N 0.8185 1.0932 0.0 0
M  V30 9 C 0.6493 2.7024 0.0 0
M  V30 10 C -0.8506 3.5684 0.0 0
M  V30 11 C 1.732 1.4999 0.0 0
M  V30 12 O 1.6275 2.4945 0.0 0
M  V30 13 C 0.1493 3.5684 0.0 0
M  V30 14 C 2.598 1.0 0.0 0
M  V30 15 C 2.598 0.0 0.0 0
M  V30 16 C 3.4641 1.4999 0.0 0
M  V30 17 N 1.732 -0.5 0.0 0
M  V30 18 C 3.4641 -0.5 0.0 0
M  V30 19 C 4.3301 1.0 0.0 0
M  V30 20 C 1.732 -1.5 0.0 0
M  V30 21 O 3.4641 -1.5 0.0 0
M  V30 22 C 4.3301 0.0 0.0 0
M  V30 23 O 2.598 -2.0 0.0 0
M  V30 24 C 0.866 -2.0 0.0 0
M  V30 25 C 4.3301 -1.9999 0.0 0
M  V30 26 N -0.0475 -1.5932 0.0 0
M  V30 27 C 0.7614 -2.9945 0.0 0
M  V30 28 O -0.7166 -2.3364 0.0 0
M  V30 29 C -0.2166 -3.2024 0.0 0
M  V30 30 C -0.6233 -4.1159 0.0 0
M  V30 31 C -1.6179 -4.2205 0.0 0
M  V30 32 C -0.0356 -4.9249 0.0 0
M  V30 33 C -2.0246 -5.134 0.0 0
M  V30 34 C -0.4423 -5.8385 0.0 0
M  V30 35 C -1.4368 -5.943 0.0 0
M  V30 END ATOM
M  V30 BEGIN BOND
M  V30 1 2 1 2
M  V30 2 1 2 3
M  V30 3 1 2 4
M  V30 4 1 3 5
M  V30 5 2 4 6
M  V30 6 1 4 7
M  V30 7 1 6 8
M  V30 8 1 6 9
M  V30 9 2 7 10
M  V30 10 2 8 11
M  V30 11 1 9 12
M  V30 12 2 9 13
M  V30 13 1 11 14
M  V30 14 2 14 15
M  V30 15 1 14 16
M  V30 16 1 15 17
M  V30 17 1 15 18
M  V30 18 2 16 19
M  V30 19 1 17 20
M  V30 20 1 18 21
M  V30 21 2 18 22
M  V30 22 2 20 23
M  V30 23 1 20 24
M  V30 24 1 21 25
M  V30 25 2 24 26
M  V30 26 1 24 27
M  V30 27 1 26 28
M  V30 28 2 27 29
M  V30 29 1 29 30
M  V30 30 2 30 31
M  V30 31 1 30 32
M  V30 32 1 31 33
M  V30 33 2 32 34
M  V30 34 2 33 35
M  V30 35 1 10 13
M  V30 36 1 11 12
M  V30 37 1 19 22
M  V30 38 1 28 29
M  V30 39 1 34 35
M  V30 END BOND
M  V30 END CTAB
M  END
>  <Rack>
PathogenBox_PlateD

>  <Position>
F09

>  <Compound ID>
MMV676186

>  <Disease Set>
KINETOPLASTIDS

>  <Trivial Name>


>  <Total Molecular Weight>
469.45

>  <Molecular Weight Parent Molecule>
469.45

>  <Molecular Formula>
C26H19N3O6

>  <Salt Name>


>  <Salt Coefficient>


>  <cLogP>
4.52

>  <SMILES>
COC(=O)c1cccc2oc(nc12)c3cccc(OC)c3NC(=O)c4cc(on4)c5ccccc5

$$$$
Compound 299
Actelion Java MolfileCreator 2.0

  0  0  0  0  0  0              0 V3000
M  V30 BEGIN CTAB
M  V30 COUNTS 29 33 0 0 0
M  V30 BEGIN ATOM
M  V30 1 O 0.866 0.0 0.0 0
M  V30 2 C 1.732 -0.5 0.0 0
M  V30 3 C 0.0 -0.5 0.0 0
M  V30 4 C 1.732 -1.5 0.0 0
M  V30 5 C 2.598 0.0 0.0 0
M  V30 6 N 0.866 -1.9999 0.0 0
M  V30 7 C 2.598 -2.0 0.0 0
M  V30 8 C 3.4641 -0.5 0.0 0
M  V30 9 N -0.0475 -1.5932 0.0 0
M  V30 10 C 0.7614 -2.9945 0.0 0
M  V30 11 C 3.4641 -1.5 0.0 0
M  V30 12 C 4.3301 0.0 0.0 0
M  V30 13 N -0.7166 -2.3364 0.0 0
M  V30 14 C -0.2166 -3.2024 0.0 0
M  V30 15 N 5.2436 -0.4067 0.0 0
M  V30 16 N 4.4346 0.9945 0.0 0
M  V30 17 C -0.6233 -4.1159 0.0 0
M  V30 18 C 5.9128 0.3364 0.0 0
M  V30 19 C 5.4128 1.2024 0.0 0
M  V30 20 C -1.6179 -4.2205 0.0 0
M  V30 21 C -0.0356 -4.9249 0.0 0
M  V30 22 C -2.0246 -5.134 0.0 0
M  V30 23 C -0.4423 -5.8385 0.0 0
M  V30 24 C -3.0191 -5.2385 0.0 0
M  V30 25 C -1.4368 -5.943 0.0 0
M  V30 26 N -3.6882 -4.4954 0.0 0
M  V30 27 N -3.5191 -6.1046 0.0 0
M  V30 28 C -4.6018 -4.9021 0.0 0
M  V30 29 C -4.4973 -5.8966 0.0 0
M  V30 END ATOM
M  V30 BEGIN BOND
M  V30 1 1 1 2
M  V30 2 1 1 3
M  V30 3 2 2 4
M  V30 4 1 2 5
M  V30 5 1 4 6
M  V30 6 1 4 7
M  V30 7 2 5 8
M  V30 8 1 6 9
M  V30 9 1 6 10
M  V30 10 2 7 11
M  V30 11 1 8 12
M  V30 12 2 9 13
M  V30 13 2 10 14
M  V30 14 2 12 15
M  V30 15 1 12 16
M  V30 16 1 14 17
M  V30 17 1 15 18
M  V30 18 1 16 19
M  V30 19 2 17 20
M  V30 20 1 17 21
M  V30 21 1 20 22
M  V30 22 2 21 23
M  V30 23 1 22 24
M  V30 24 2 22 25
M  V30 25 2 24 26
M  V30 26 1 24 27
M  V30 27 1 26 28
M  V30 28 1 27 29
M  V30 29 1 8 11
M  V30 30 1 13 14
M  V30 31 1 18 19
M  V30 32 1 23 25
M  V30 33 1 28 29
M  V30 END BOND
M  V30 END CTAB
M  END
>  <Rack>
PathogenBox_PlateD

>  <Position>
F10

>  <Compound ID>
MMV688474

>  <Disease Set>
KINETOPLASTIDS

>  <Trivial Name>


>  <Total Molecular Weight>
477.47

>  <Molecular Weight Parent Molecule>
387.44

>  <Molecular Formula>
C21H21N7O

>  <Salt Name>
Formate

>  <Salt Coefficient>
2

>  <cLogP>
0.90

>  <SMILES>
COc1cc(ccc1n2cc(nn2)c3cccc(c3)C4=NCCN4)C5=NCCN5

$$$$
Compound 300
Actelion Java MolfileCreator 2.0

  0  0  0  0  0  0              0 V3000
M  V30 BEGIN CTAB
M  V30 COUNTS 38 41 0 0 0
M  V30 BEGIN ATOM
M  V30 1 F 11.2583 -2.9999 0.0 0
M  V30 2 C 11.2583 -1.9999 0.0 0
M  V30 3 C 12.1243 -1.5 0.0 0
M  V30 4 C 10.3923 -1.4999 0.0 0
M  V30 5 C 12.1243 -0.4999 0.0 0
M  V30 6 C 12.9903 -1.9999 0.0 0
M  V30 7 C 10.3923 -0.4999 0.0 0
M  V30 8 C 11.2583 0.0 0.0 0
M  V30 9 F 13.4903 -1.1339 0.0 0
M  V30 10 F 13.8564 -2.4999 0.0 0
M  V30 11 F 12.4903 -2.866 0.0 0
M  V30 12 C 9.5262 0.0 0.0 0
M  V30 13 N 9.5262 1.0 0.0 0
M  V30 14 C 8.6602 -0.4999 0.0 0
M  V30 15 C 8.6602 1.5 0.0 0
M  V30 16 N 7.7942 0.0 0.0 0
M  V30 17 C 7.7942 0.9999 0.0 0
M  V30 18 C 8.6602 2.5 0.0 0
M  V30 19 N 6.9282 1.4999 0.0 0
M  V30 20 O 9.5262 3.0 0.0 0
M  V30 21 N 7.7942 3.0 0.0 0
M  V30 22 C 6.0621 0.9999 0.0 0
M  V30 23 C 5.1961 1.4999 0.0 0
M  V30 24 C 6.0621 0.0 0.0 0
M  V30 25 N 4.3301 0.9999 0.0 0
M  V30 26 N 5.1961 -0.5 0.0 0
M  V30 27 C 4.3301 0.0 0.0 0
M  V30 28 O 3.4641 -0.5 0.0 0
M  V30 29 C 2.598 0.0 0.0 0
M  V30 30 C 1.732 -0.5 0.0 0
M  V30 31 C 0.866 0.0 0.0 0
M  V30 32 N 0.0 -0.5 0.0 0
M  V30 33 C -0.866 0.0 0.0 0
M  V30 34 C 0.0 -1.4999 0.0 0
M  V30 35 C -1.732 -0.4999 0.0 0
M  V30 36 C -0.866 -1.9999 0.0 0
M  V30 37 N -1.732 -1.4999 0.0 0
M  V30 38 C -2.598 -1.9999 0.0 0
M  V30 END ATOM
M  V30 BEGIN BOND
M  V30 1 1 1 2
M  V30 2 2 2 3
M  V30 3 1 2 4
M  V30 4 1 3 5
M  V30 5 1 3 6
M  V30 6 2 4 7
M  V30 7 2 5 8
M  V30 8 1 6 9
M  V30 9 1 6 10
M  V30 10 1 6 11
M  V30 11 1 7 12
M  V30 12 2 12 13
M  V30 13 1 12 14
M  V30 14 1 13 15
M  V30 15 2 14 16
M  V30 16 2 15 17
M  V30 17 1 15 18
M  V30 18 1 17 19
M  V30 19 2 18 20
M  V30 20 1 18 21
M  V30 21 1 19 22
M  V30 22 2 22 23
M  V30 23 1 22 24
M  V30 24 1 23 25
M  V30 25 2 24 26
M  V30 26 2 25 27
M  V30 27 1 27 28
M  V30 28 1 28 29
M  V30 29 1 29 30
M  V30 30 1 30 31
M  V30 31 1 31 32
M  V30 32 1 32 33
M  V30 33 1 32 34
M  V30 34 1 33 35
M  V30 35 1 34 36
M  V30 36 1 35 37
M  V30 37 1 37 38
M  V30 38 1 7 8
M  V30 39 1 16 17
M  V30 40 1 26 27
M  V30 41 1 36 37
M  V30 END BOND
M  V30 END CTAB
M  END
>  <Rack>
PathogenBox_PlateD

>  <Position>
F11

>  <Compound ID>
MMV687812

>  <Disease Set>
TUBERCULOSIS

>  <Trivial Name>


>  <Total Molecular Weight>
534.51

>  <Molecular Weight Parent Molecule>
534.51

>  <Molecular Formula>
C24H26N8O2F4

>  <Salt Name>


>  <Salt Coefficient>


>  <cLogP>
2.35

>  <SMILES>
CN1CCN(CCCOc2ncc(Nc3ncc(nc3C(=O)N)c4ccc(c(F)c4)C(F)(F)F)cn2)CC1

$$$$
Compound 301
Actelion Java MolfileCreator 2.0

  0  0  0  0  0  0              0 V3000
M  V30 BEGIN CTAB
M  V30 COUNTS 21 23 0 0 0
M  V30 BEGIN ATOM
M  V30 1 Cl 6.4951 1.4999 0.0 0
M  V30 2 C 6.4951 0.0 0.0 0
M  V30 3 C 5.1961 -0.75 0.0 0
M  V30 4 C 7.7942 -0.75 0.0 0
M  V30 5 C 5.1961 -2.25 0.0 0
M  V30 6 C 3.8971 0.0 0.0 0
M  V30 7 C 7.7942 -2.25 0.0 0
M  V30 8 C 6.4951 -3.0 0.0 0
M  V30 9 S 2.598 -0.75 0.0 0
M  V30 10 C 1.299 0.0 0.0 0
M  V30 11 C 0.0 -0.75 0.0 0
M  V30 12 O -1.3703 -0.1398 0.0 0
M  V30 13 C -0.1567 -2.2417 0.0 0
M  V30 14 C -2.374 -1.2546 0.0 0
M  V30 15 C -1.624 -2.5536 0.0 0
M  V30 16 C -3.8657 -1.0978 0.0 0
M  V30 17 O -4.7474 -2.3113 0.0 0
M  V30 18 N -4.4759 0.2724 0.0 0
M  V30 19 C -5.9676 0.4292 0.0 0
M  V30 20 C -7.1812 1.3109 0.0 0
M  V30 21 C -7.338 -0.1808 0.0 0
M  V30 END ATOM
M  V30 BEGIN BOND
M  V30 1 1 1 2
M  V30 2 2 2 3
M  V30 3 1 2 4
M  V30 4 1 3 5
M  V30 5 1 3 6
M  V30 6 2 4 7
M  V30 7 2 5 8
M  V30 8 1 6 9
M  V30 9 1 9 10
M  V30 10 1 10 11
M  V30 11 1 11 12
M  V30 12 2 11 13
M  V30 13 1 12 14
M  V30 14 1 13 15
M  V30 15 1 14 16
M  V30 16 2 16 17
M  V30 17 1 16 18
M  V30 18 1 18 19
M  V30 19 1 19 20
M  V30 20 1 19 21
M  V30 21 1 7 8
M  V30 22 2 14 15
M  V30 23 1 20 21
M  V30 END BOND
M  V30 END CTAB
M  END
>  <Rack>
PathogenBox_PlateD

>  <Position>
G02

>  <Compound ID>
MMV007803

>  <Disease Set>
MALARIA

>  <Trivial Name>


>  <Total Molecular Weight>
321.83

>  <Molecular Weight Parent Molecule>
321.83

>  <Molecular Formula>
C16H16NO2ClS

>  <Salt Name>


>  <Salt Coefficient>


>  <cLogP>
3.42

>  <SMILES>
Clc1ccccc1CSCc2oc(cc2)C(=O)NC3CC3

$$$$
Compound 302
Actelion Java MolfileCreator 2.0

  0  0  0  0  0  0              0 V3000
M  V30 BEGIN CTAB
M  V30 COUNTS 25 26 0 0 0
M  V30 BEGIN ATOM
M  V30 1 S 3.8971 0.0 0.0 0
M  V30 2 O 4.6471 1.299 0.0 0
M  V30 3 O 3.1471 1.299 0.0 0
M  V30 4 N 5.1961 -0.75 0.0 0
M  V30 5 C 2.598 -0.75 0.0 0
M  V30 6 C 5.1961 -2.25 0.0 0
M  V30 7 C 6.4952 0.0 0.0 0
M  V30 8 C 1.299 0.0 0.0 0
M  V30 9 C 6.4952 -3.0 0.0 0
M  V30 10 C 7.7942 -0.75 0.0 0
M  V30 11 C 0.0 -0.75 0.0 0
M  V30 12 C 7.7942 -2.25 0.0 0
M  V30 13 C 9.0932 -3.0 0.0 0
M  V30 14 C 9.0932 -1.5 0.0 0
M  V30 15 O 9.0932 -4.5 0.0 0
M  V30 16 C 9.0932 0.0 0.0 0
M  V30 17 C 10.3923 0.75 0.0 0
M  V30 18 C 7.7942 0.75 0.0 0
M  V30 19 C 10.3923 2.25 0.0 0
M  V30 20 C 11.6913 0.0 0.0 0
M  V30 21 C 7.7942 2.25 0.0 0
M  V30 22 C 9.0932 3.0 0.0 0
M  V30 23 F 12.4413 1.299 0.0 0
M  V30 24 F 12.9904 -0.75 0.0 0
M  V30 25 F 10.9413 -1.299 0.0 0
M  V30 END ATOM
M  V30 BEGIN BOND
M  V30 1 2 1 2
M  V30 2 2 1 3
M  V30 3 1 1 4
M  V30 4 1 1 5
M  V30 5 1 4 6
M  V30 6 1 4 7
M  V30 7 1 5 8
M  V30 8 1 6 9
M  V30 9 1 7 10
M  V30 10 1 8 11
M  V30 11 1 9 12
M  V30 12 1 12 13
M  V30 13 1 12 14
M  V30 14 1 13 15
M  V30 15 1 14 16
M  V30 16 2 16 17
M  V30 17 1 16 18
M  V30 18 1 17 19
M  V30 19 1 17 20
M  V30 20 2 18 21
M  V30 21 2 19 22
M  V30 22 1 20 23
M  V30 23 1 20 24
M  V30 24 1 20 25
M  V30 25 1 10 12
M  V30 26 1 21 22
M  V30 END BOND
M  V30 END CTAB
M  END
>  <Rack>
PathogenBox_PlateD

>  <Position>
G03

>  <Compound ID>
MMV001059

>  <Disease Set>
MALARIA

>  <Trivial Name>


>  <Total Molecular Weight>
379.44

>  <Molecular Weight Parent Molecule>
379.44

>  <Molecular Formula>
C17H24NO3F3S

>  <Salt Name>


>  <Salt Coefficient>


>  <cLogP>
3.53

>  <SMILES>
CCCS(=O)(=O)N1CCC(CO)(Cc2ccccc2C(F)(F)F)CC1

$$$$
Compound 303
Actelion Java MolfileCreator 2.0

  0  0  0  0  0  0              0 V3000
M  V30 BEGIN CTAB
M  V30 COUNTS 29 33 0 0 0
M  V30 BEGIN ATOM
M  V30 1 O 2.598 0.0 0.0 0
M  V30 2 C 1.732 -0.5 0.0 0
M  V30 3 N 1.732 -1.5 0.0 0
M  V30 4 C 0.866 0.0 0.0 0
M  V30 5 C 0.866 -2.0 0.0 0
M  V30 6 C 2.598 -1.9999 0.0 0
M  V30 7 N 0.0 -0.5 0.0 0
M  V30 8 C 0.866 -3.0 0.0 0
M  V30 9 C 2.598 -2.9999 0.0 0
M  V30 10 N 0.1228 -3.6691 0.0 0
M  V30 11 N 1.732 -3.4999 0.0 0
M  V30 12 C 0.5296 -4.5826 0.0 0
M  V30 13 C 1.5241 -4.4781 0.0 0
M  V30 14 C 0.0296 -5.4487 0.0 0
M  V30 15 N 2.1932 -5.2212 0.0 0
M  V30 16 C -0.9703 -5.4487 0.0 0
M  V30 17 C 0.5296 -6.3147 0.0 0
M  V30 18 C 3.1714 -5.0133 0.0 0
M  V30 19 C -1.4703 -6.3147 0.0 0
M  V30 20 C 0.0296 -7.1807 0.0 0
M  V30 21 C 3.8405 -5.7565 0.0 0
M  V30 22 C 3.4804 -4.0623 0.0 0
M  V30 23 C -0.9703 -7.1807 0.0 0
M  V30 24 C 4.8186 -5.5486 0.0 0
M  V30 25 C 4.4585 -3.8544 0.0 0
M  V30 26 O 5.6277 -6.1363 0.0 0
M  V30 27 C 5.1277 -4.5975 0.0 0
M  V30 28 C 6.4367 -5.5486 0.0 0
M  V30 29 O 6.1277 -4.5975 0.0 0
M  V30 END ATOM
M  V30 BEGIN BOND
M  V30 1 2 1 2
M  V30 2 1 2 3
M  V30 3 1 2 4
M  V30 4 1 3 5
M  V30 5 1 3 6
M  V30 6 1 4 7
M  V30 7 1 5 8
M  V30 8 1 6 9
M  V30 9 2 8 10
M  V30 10 1 8 11
M  V30 11 1 10 12
M  V30 12 1 11 13
M  V30 13 1 12 14
M  V30 14 1 13 15
M  V30 15 2 14 16
M  V30 16 1 14 17
M  V30 17 1 15 18
M  V30 18 1 16 19
M  V30 19 2 17 20
M  V30 20 2 18 21
M  V30 21 1 18 22
M  V30 22 2 19 23
M  V30 23 1 21 24
M  V30 24 2 22 25
M  V30 25 1 24 26
M  V30 26 2 24 27
M  V30 27 1 26 28
M  V30 28 1 27 29
M  V30 29 1 9 11
M  V30 30 2 12 13
M  V30 31 1 20 23
M  V30 32 1 25 27
M  V30 33 1 28 29
M  V30 END BOND
M  V30 END CTAB
M  END
>  <Rack>
PathogenBox_PlateD

>  <Position>
G04

>  <Compound ID>
MMV011691

>  <Disease Set>
MALARIA

>  <Trivial Name>


>  <Total Molecular Weight>
391.43

>  <Molecular Weight Parent Molecule>
391.43

>  <Molecular Formula>
C21H21N5O3

>  <Salt Name>


>  <Salt Coefficient>


>  <cLogP>
2.43

>  <SMILES>
NCC(=O)N1CCn2c(C1)nc(c2Nc3ccc4OCOc4c3)c5ccccc5

$$$$
Compound 304
Actelion Java MolfileCreator 2.0

  0  0  0  0  0  0              0 V3000
M  V30 BEGIN CTAB
M  V30 COUNTS 22 24 0 0 0
M  V30 BEGIN ATOM
M  V30 1 Cl 10.0262 -5.866 0.0 0
M  V30 2 C 9.1602 -5.366 0.0 0
M  V30 3 C 9.1602 -4.366 0.0 0
M  V30 4 C 8.2942 -5.866 0.0 0
M  V30 5 C 8.2942 -3.866 0.0 0
M  V30 6 C 7.4282 -5.366 0.0 0
M  V30 7 C 7.4282 -4.366 0.0 0
M  V30 8 C 6.5621 -3.866 0.0 0 CFG=1
M  V30 9 C 6.0621 -3.0 0.0 0
M  V30 10 C 5.5621 -3.866 0.0 0
M  V30 11 C 6.0621 -1.9999 0.0 0
M  V30 12 O 6.9282 -1.5 0.0 0
M  V30 13 C 5.1961 -1.4999 0.0 0
M  V30 14 C 5.1961 -0.5 0.0 0
M  V30 15 C 4.3301 -1.9999 0.0 0
M  V30 16 C 4.3301 0.0 0.0 0
M  V30 17 C 3.4641 -1.5 0.0 0
M  V30 18 C 3.4641 -0.5 0.0 0
M  V30 19 N 2.598 0.0 0.0 0
M  V30 20 C 1.732 -0.5 0.0 0
M  V30 21 C 0.866 0.0 0.0 0
M  V30 22 O 0.0 -0.5 0.0 0
M  V30 END ATOM
M  V30 BEGIN BOND
M  V30 1 1 1 2
M  V30 2 2 2 3
M  V30 3 1 2 4
M  V30 4 1 3 5
M  V30 5 2 4 6
M  V30 6 2 5 7
M  V30 7 1 8 7 CFG=3
M  V30 8 1 8 9
M  V30 9 1 8 10
M  V30 10 1 9 11
M  V30 11 2 11 12
M  V30 12 1 11 13
M  V30 13 2 13 14
M  V30 14 1 13 15
M  V30 15 1 14 16
M  V30 16 2 15 17
M  V30 17 2 16 18
M  V30 18 1 18 19
M  V30 19 1 19 20
M  V30 20 1 20 21
M  V30 21 1 21 22
M  V30 22 1 6 7
M  V30 23 1 9 10
M  V30 24 1 17 18
M  V30 END BOND
M  V30 BEGIN COLLECTION
M  V30 MDLV30/STEABS ATOMS=(1 8)
M  V30 END COLLECTION
M  V30 END CTAB
M  END
>  <Rack>
PathogenBox_PlateD

>  <Position>
G05

>  <Compound ID>
MMV676877

>  <Disease Set>
MALARIA

>  <Trivial Name>


>  <Total Molecular Weight>
315.79

>  <Molecular Weight Parent Molecule>
315.79

>  <Molecular Formula>
C18H18NO2Cl

>  <Salt Name>


>  <Salt Coefficient>


>  <cLogP>
3.33

>  <SMILES>
OCCNc1ccc(cc1)C(=O)C2C[C@H]2c3ccc(Cl)cc3

$$$$
Compound 305
Actelion Java MolfileCreator 2.0

  0  0  0  0  0  0              0 V3000
M  V30 BEGIN CTAB
M  V30 COUNTS 26 29 0 0 0
M  V30 BEGIN ATOM
M  V30 1 Cl 4.3301 0.0 0.0 0
M  V30 2 C 3.4641 -0.5 0.0 0
M  V30 3 C 2.598 0.0 0.0 0
M  V30 4 C 3.4641 -1.4999 0.0 0
M  V30 5 C 1.732 -0.5 0.0 0
M  V30 6 C 2.598 -2.0 0.0 0
M  V30 7 C 1.732 -1.5 0.0 0
M  V30 8 C 0.866 0.0 0.0 0 CFG=1
M  V30 9 N 0.866 1.0 0.0 0
M  V30 10 C 0.0 -0.5 0.0 0
M  V30 11 C 1.675 1.5877 0.0 0
M  V30 12 C 0.057 1.5877 0.0 0
M  V30 13 C -0.866 0.0 0.0 0
M  V30 14 C 0.0 -1.4999 0.0 0
M  V30 15 N 1.366 2.5388 0.0 0
M  V30 16 C 0.366 2.5388 0.0 0
M  V30 17 C -1.732 -0.4999 0.0 0
M  V30 18 C -0.866 -1.9999 0.0 0
M  V30 19 C -1.732 -1.4999 0.0 0
M  V30 20 C -2.598 -1.9999 0.0 0
M  V30 21 N -2.598 -2.9999 0.0 0
M  V30 22 C -3.4641 -3.4999 0.0 0
M  V30 23 C -1.732 -3.4999 0.0 0
M  V30 24 C -3.4641 -4.4999 0.0 0
M  V30 25 C -1.732 -4.4999 0.0 0
M  V30 26 N -2.598 -4.9999 0.0 0
M  V30 END ATOM
M  V30 BEGIN BOND
M  V30 1 1 1 2
M  V30 2 2 2 3
M  V30 3 1 2 4
M  V30 4 1 3 5
M  V30 5 2 4 6
M  V30 6 2 5 7
M  V30 7 1 8 5
M  V30 8 1 8 9 CFG=3
M  V30 9 1 8 10
M  V30 10 1 9 11
M  V30 11 1 9 12
M  V30 12 2 10 13
M  V30 13 1 10 14
M  V30 14 2 11 15
M  V30 15 2 12 16
M  V30 16 1 13 17
M  V30 17 2 14 18
M  V30 18 2 17 19
M  V30 19 1 19 20
M  V30 20 1 20 21
M  V30 21 1 21 22
M  V30 22 1 21 23
M  V30 23 1 22 24
M  V30 24 1 23 25
M  V30 25 1 24 26
M  V30 26 1 6 7
M  V30 27 1 15 16
M  V30 28 1 18 19
M  V30 29 1 25 26
M  V30 END BOND
M  V30 BEGIN COLLECTION
M  V30 MDLV30/STERAC1 ATOMS=(1 8)
M  V30 END COLLECTION
M  V30 END CTAB
M  END
>  <Rack>
PathogenBox_PlateD

>  <Position>
G06

>  <Compound ID>
MMV663250

>  <Disease Set>
MALARIA

>  <Trivial Name>


>  <Total Molecular Weight>
366.90

>  <Molecular Weight Parent Molecule>
366.90

>  <Molecular Formula>
C21H23N4Cl

>  <Salt Name>


>  <Salt Coefficient>


>  <cLogP>
3.15

>  <SMILES>
Clc1cccc(c1)C(c2ccc(CN3CCNCC3)cc2)n4ccnc4

$$$$
Compound 306
Actelion Java MolfileCreator 2.0

  0  0  0  0  0  0              0 V3000
M  V30 BEGIN CTAB
M  V30 COUNTS 32 36 0 0 0
M  V30 BEGIN ATOM
M  V30 1 S 10.7334 4.092 0.0 0
M  V30 2 C 11.615 2.8785 0.0 0
M  V30 3 C 11.615 5.3056 0.0 0
M  V30 4 C 13.0416 3.342 0.0 0
M  V30 5 C 11.1515 1.4519 0.0 0
M  V30 6 C 13.0416 4.842 0.0 0
M  V30 7 N 9.6843 1.1401 0.0 0
M  V30 8 C 9.2208 -0.2864 0.0 0
M  V30 9 C 8.6806 2.2548 0.0 0
M  V30 10 N 7.7942 -0.75 0.0 0
M  V30 11 C 10.1024 -1.5 0.0 0
M  V30 12 C 7.7942 -2.25 0.0 0
M  V30 13 C 6.4951 0.0 0.0 0
M  V30 14 N 9.2208 -2.7135 0.0 0
M  V30 15 C 11.6024 -1.5 0.0 0
M  V30 16 C 6.4951 -3.0 0.0 0
M  V30 17 C 5.1961 -0.75 0.0 0
M  V30 18 C 12.3524 -2.799 0.0 0
M  V30 19 C 5.1961 -2.2499 0.0 0
M  V30 20 C 3.8971 0.0 0.0 0
M  V30 21 O 3.8971 1.5 0.0 0
M  V30 22 N 2.598 -0.75 0.0 0
M  V30 23 C 1.299 0.0 0.0 0
M  V30 24 C 0.0 -0.75 0.0 0
M  V30 25 C -1.299 0.0 0.0 0
M  V30 26 C 0.0 -2.2499 0.0 0
M  V30 27 C -2.598 -0.75 0.0 0
M  V30 28 C -1.299 -3.0 0.0 0
M  V30 29 O -4.0246 -0.2864 0.0 0
M  V30 30 C -2.598 -2.2499 0.0 0
M  V30 31 C -4.9063 -1.5 0.0 0
M  V30 32 O -4.0246 -2.7135 0.0 0
M  V30 END ATOM
M  V30 BEGIN BOND
M  V30 1 1 1 2
M  V30 2 1 1 3
M  V30 3 2 2 4
M  V30 4 1 2 5
M  V30 5 2 3 6
M  V30 6 1 5 7
M  V30 7 1 7 8
M  V30 8 1 7 9
M  V30 9 1 8 10
M  V30 10 2 8 11
M  V30 11 1 10 12
M  V30 12 1 10 13
M  V30 13 1 11 14
M  V30 14 1 11 15
M  V30 15 1 12 16
M  V30 16 2 13 17
M  V30 17 1 15 18
M  V30 18 2 16 19
M  V30 19 1 17 20
M  V30 20 2 20 21
M  V30 21 1 20 22
M  V30 22 1 22 23
M  V30 23 1 23 24
M  V30 24 2 24 25
M  V30 25 1 24 26
M  V30 26 1 25 27
M  V30 27 2 26 28
M  V30 28 1 27 29
M  V30 29 2 27 30
M  V30 30 1 29 31
M  V30 31 1 30 32
M  V30 32 1 4 6
M  V30 33 2 12 14
M  V30 34 1 17 19
M  V30 35 1 28 30
M  V30 36 1 31 32
M  V30 END BOND
M  V30 END CTAB
M  END
>  <Rack>
PathogenBox_PlateD

>  <Position>
G07

>  <Compound ID>
MMV407539

>  <Disease Set>
WOLBACHIA LF

>  <Trivial Name>


>  <Total Molecular Weight>
448.54

>  <Molecular Weight Parent Molecule>
448.54

>  <Molecular Formula>
C24H24N4O3S

>  <Salt Name>


>  <Salt Coefficient>


>  <cLogP>
3.92

>  <SMILES>
CCc1nc2ccc(cn2c1N(C)Cc3cccs3)C(=O)NCc4ccc5OCOc5c4

$$$$
Compound 307
Actelion Java MolfileCreator 2.0

  0  0  0  0  0  0              0 V3000
M  V30 BEGIN CTAB
M  V30 COUNTS 30 34 0 0 0
M  V30 BEGIN ATOM
M  V30 1 F 5.1961 1.5 0.0 0
M  V30 2 C 4.3301 1.0 0.0 0
M  V30 3 C 3.4641 1.5 0.0 0
M  V30 4 C 4.3301 0.0 0.0 0
M  V30 5 C 3.4641 2.5 0.0 0
M  V30 6 C 2.598 0.9999 0.0 0
M  V30 7 C 3.4641 -0.4999 0.0 0
M  V30 8 N 4.2731 3.0877 0.0 0
M  V30 9 N 2.655 3.0877 0.0 0
M  V30 10 C 2.598 0.0 0.0 0
M  V30 11 C 3.9641 4.0388 0.0 0
M  V30 12 C 2.9641 4.0388 0.0 0
M  V30 13 N 1.732 -0.5 0.0 0
M  V30 14 C 4.4641 4.9048 0.0 0
M  V30 15 N 2.4641 4.9048 0.0 0
M  V30 16 C 0.866 0.0 0.0 0
M  V30 17 C 3.9641 5.7708 0.0 0
M  V30 18 C 2.9641 5.7708 0.0 0
M  V30 19 O 0.866 1.0 0.0 0
M  V30 20 N 0.0 -0.5 0.0 0
M  V30 21 C 4.4641 6.6369 0.0 0
M  V30 22 C -0.9135 -0.0932 0.0 0
M  V30 23 C -0.1045 -1.4945 0.0 0
M  V30 24 C 5.4641 6.6369 0.0 0
M  V30 25 C 3.9641 7.5029 0.0 0
M  V30 26 C -1.5826 -0.8364 0.0 0
M  V30 27 C -1.0826 -1.7024 0.0 0
M  V30 28 C 5.9641 7.5029 0.0 0
M  V30 29 C 4.4641 8.3689 0.0 0
M  V30 30 C 5.4641 8.3689 0.0 0
M  V30 END ATOM
M  V30 BEGIN BOND
M  V30 1 1 1 2
M  V30 2 2 2 3
M  V30 3 1 2 4
M  V30 4 1 3 5
M  V30 5 1 3 6
M  V30 6 2 4 7
M  V30 7 2 5 8
M  V30 8 1 5 9
M  V30 9 2 6 10
M  V30 10 1 8 11
M  V30 11 1 9 12
M  V30 12 1 10 13
M  V30 13 1 11 14
M  V30 14 1 12 15
M  V30 15 1 13 16
M  V30 16 2 14 17
M  V30 17 2 15 18
M  V30 18 2 16 19
M  V30 19 1 16 20
M  V30 20 1 17 21
M  V30 21 1 20 22
M  V30 22 1 20 23
M  V30 23 2 21 24
M  V30 24 1 21 25
M  V30 25 1 22 26
M  V30 26 1 23 27
M  V30 27 1 24 28
M  V30 28 2 25 29
M  V30 29 2 28 30
M  V30 30 1 7 10
M  V30 31 2 11 12
M  V30 32 1 17 18
M  V30 33 1 26 27
M  V30 34 1 29 30
M  V30 END BOND
M  V30 END CTAB
M  END
>  <Rack>
PathogenBox_PlateD

>  <Position>
G08

>  <Compound ID>
MMV688372

>  <Disease Set>
KINETOPLASTIDS

>  <Trivial Name>


>  <Total Molecular Weight>
401.44

>  <Molecular Weight Parent Molecule>
401.44

>  <Molecular Formula>
C23H20N5OF

>  <Salt Name>


>  <Salt Coefficient>


>  <cLogP>
4.43

>  <SMILES>
FC1=C(C=C(NC(=O)N2CCCC2)C=C1)C1=NC2=CC(=CN=C2N1)C1=CC=CC=C1

$$$$
Compound 308
Actelion Java MolfileCreator 2.0

  0  0  0  0  0  0              0 V3000
M  V30 BEGIN CTAB
M  V30 COUNTS 27 29 0 0 0
M  V30 BEGIN ATOM
M  V30 1 Cl 4.3301 0.9999 0.0 0
M  V30 2 C 4.3301 0.0 0.0 0
M  V30 3 C 3.4641 -0.5 0.0 0
M  V30 4 C 5.1961 -0.5 0.0 0
M  V30 5 N 3.4641 -1.5 0.0 0
M  V30 6 N 2.598 0.0 0.0 0
M  V30 7 N 5.1961 -1.5 0.0 0
M  V30 8 C 6.0621 0.0 0.0 0
M  V30 9 C 4.3301 -2.0 0.0 0
M  V30 10 C 1.732 -0.5 0.0 0
M  V30 11 C 4.3301 -3.0 0.0 0
M  V30 12 C 0.866 0.0 0.0 0
M  V30 13 N 3.4641 -3.4999 0.0 0
M  V30 14 C 5.1961 -3.5 0.0 0
M  V30 15 C 0.0 -0.5 0.0 0
M  V30 16 C 3.4641 -4.5 0.0 0
M  V30 17 C 5.1961 -4.5 0.0 0
M  V30 18 C -0.866 0.0 0.0 0
M  V30 19 C 0.0 -1.4999 0.0 0
M  V30 20 C 4.3301 -5.0 0.0 0
M  V30 21 C -1.732 -0.4999 0.0 0
M  V30 22 C -0.866 -1.9999 0.0 0
M  V30 23 C -1.732 -1.4999 0.0 0
M  V30 24 S -2.598 -1.9999 0.0 0
M  V30 25 O -3.098 -1.1339 0.0 0
M  V30 26 O -2.098 -2.866 0.0 0
M  V30 27 C -3.4641 -2.4999 0.0 0
M  V30 END ATOM
M  V30 BEGIN BOND
M  V30 1 1 1 2
M  V30 2 2 2 3
M  V30 3 1 2 4
M  V30 4 1 3 5
M  V30 5 1 3 6
M  V30 6 2 4 7
M  V30 7 1 4 8
M  V30 8 2 5 9
M  V30 9 1 6 10
M  V30 10 1 9 11
M  V30 11 1 10 12
M  V30 12 2 11 13
M  V30 13 1 11 14
M  V30 14 1 12 15
M  V30 15 1 13 16
M  V30 16 2 14 17
M  V30 17 2 15 18
M  V30 18 1 15 19
M  V30 19 2 16 20
M  V30 20 1 18 21
M  V30 21 2 19 22
M  V30 22 2 21 23
M  V30 23 1 23 24
M  V30 24 2 24 25
M  V30 25 2 24 26
M  V30 26 1 24 27
M  V30 27 1 7 9
M  V30 28 1 17 20
M  V30 29 1 22 23
M  V30 END BOND
M  V30 END CTAB
M  END
>  <Rack>
PathogenBox_PlateD

>  <Position>
G09

>  <Compound ID>
MMV658993

>  <Disease Set>
KINETOPLASTIDS

>  <Trivial Name>


>  <Total Molecular Weight>
402.90

>  <Molecular Weight Parent Molecule>
402.90

>  <Molecular Formula>
C19H19N4O2ClS

>  <Salt Name>


>  <Salt Coefficient>


>  <cLogP>
2.68

>  <SMILES>
Cc1nc(nc(NCCc2ccc(cc2)S(=O)(=O)C)c1Cl)c3ccccn3

$$$$
Compound 309
Actelion Java MolfileCreator 2.0

  0  0  0  0  0  0              0 V3000
M  V30 BEGIN CTAB
M  V30 COUNTS 28 32 0 0 0
M  V30 BEGIN ATOM
M  V30 1 N 2.2146 -4.783 0.0 0
M  V30 2 C 1.7511 -3.3565 0.0 0
M  V30 3 C 3.6819 -5.0949 0.0 0
M  V30 4 N 0.2839 -3.0446 0.0 0
M  V30 5 C 2.7548 -2.2417 0.0 0
M  V30 6 N 4.6856 -3.9802 0.0 0
M  V30 7 C 4.222 -2.5536 0.0 0
M  V30 8 C 2.598 -0.75 0.0 0
M  V30 9 N 4.972 -1.2546 0.0 0
M  V30 10 N 3.9683 -0.1398 0.0 0
M  V30 11 C 1.299 0.0 0.0 0
M  V30 12 C 6.4638 -1.0978 0.0 0
M  V30 13 C 1.299 1.4999 0.0 0
M  V30 14 C 7.0739 0.2724 0.0 0
M  V30 15 C 2.598 2.2499 0.0 0
M  V30 16 C 0.0 2.25 0.0 0
M  V30 17 C 8.5657 0.4292 0.0 0
M  V30 18 C 6.1923 1.486 0.0 0
M  V30 19 C 2.598 3.7499 0.0 0
M  V30 20 C 3.8971 1.4999 0.0 0
M  V30 21 C 0.0 3.75 0.0 0
M  V30 22 C 9.1758 1.7996 0.0 0
M  V30 23 C 6.8024 2.8563 0.0 0
M  V30 24 C 1.299 4.5 0.0 0
M  V30 25 C 3.8971 4.4999 0.0 0
M  V30 26 C 5.1961 2.2499 0.0 0
M  V30 27 N 8.2941 3.0131 0.0 0
M  V30 28 C 5.1961 3.7499 0.0 0
M  V30 END ATOM
M  V30 BEGIN BOND
M  V30 1 2 1 2
M  V30 2 1 1 3
M  V30 3 1 2 4
M  V30 4 1 2 5
M  V30 5 2 3 6
M  V30 6 2 5 7
M  V30 7 1 5 8
M  V30 8 1 7 9
M  V30 9 2 8 10
M  V30 10 1 8 11
M  V30 11 1 9 12
M  V30 12 1 11 13
M  V30 13 1 12 14
M  V30 14 1 13 15
M  V30 15 2 13 16
M  V30 16 1 14 17
M  V30 17 1 14 18
M  V30 18 1 15 19
M  V30 19 2 15 20
M  V30 20 1 16 21
M  V30 21 1 17 22
M  V30 22 1 18 23
M  V30 23 1 19 24
M  V30 24 2 19 25
M  V30 25 1 20 26
M  V30 26 1 22 27
M  V30 27 1 25 28
M  V30 28 1 6 7
M  V30 29 1 9 10
M  V30 30 2 21 24
M  V30 31 1 23 27
M  V30 32 2 26 28
M  V30 END BOND
M  V30 END CTAB
M  END
>  <Rack>
PathogenBox_PlateD

>  <Position>
G10

>  <Compound ID>
MMV676182

>  <Disease Set>
CRYPTOSPORIDIOSIS

>  <Trivial Name>


>  <Total Molecular Weight>
372.47

>  <Molecular Weight Parent Molecule>
372.47

>  <Molecular Formula>
C22H24N6

>  <Salt Name>


>  <Salt Coefficient>


>  <cLogP>
2.79

>  <SMILES>
Nc1ncnc2c1c(Cc3cccc4ccccc34)nn2CC5CCNCC5

$$$$
Compound 310
Actelion Java MolfileCreator 2.0

  0  0  0  0  0  0              0 V3000
M  V30 BEGIN CTAB
M  V30 COUNTS 23 25 0 0 0
M  V30 BEGIN ATOM
M  V30 1 S 4.4346 0.9945 0.0 0
M  V30 2 C 4.3301 0.0 0.0 0
M  V30 3 C 5.4128 1.2024 0.0 0
M  V30 4 N 5.2436 -0.4067 0.0 0
M  V30 5 N 3.4641 -0.5 0.0 0
M  V30 6 C 5.9128 0.3364 0.0 0
M  V30 7 C 2.598 0.0 0.0 0
M  V30 8 C 6.9073 0.2318 0.0 0
M  V30 9 O 2.598 1.0 0.0 0
M  V30 10 C 1.732 -0.5 0.0 0 CFG=1
M  V30 11 N 7.314 -0.6816 0.0 0
M  V30 12 C 7.4951 1.0408 0.0 0
M  V30 13 O 0.866 0.0 0.0 0
M  V30 14 C 1.732 -1.5 0.0 0
M  V30 15 C 8.3085 -0.7861 0.0 0
M  V30 16 C 8.4896 0.9363 0.0 0
M  V30 17 C 0.0 -0.5 0.0 0
M  V30 18 C 8.8963 0.0228 0.0 0
M  V30 19 C -0.866 0.0 0.0 0
M  V30 20 C 0.0 -1.4999 0.0 0
M  V30 21 C -1.732 -0.4999 0.0 0
M  V30 22 C -0.866 -1.9999 0.0 0
M  V30 23 C -1.732 -1.4999 0.0 0
M  V30 END ATOM
M  V30 BEGIN BOND
M  V30 1 1 1 2
M  V30 2 1 1 3
M  V30 3 2 2 4
M  V30 4 1 2 5
M  V30 5 2 3 6
M  V30 6 1 5 7
M  V30 7 1 6 8
M  V30 8 2 7 9
M  V30 9 1 10 7
M  V30 10 2 8 11
M  V30 11 1 8 12
M  V30 12 1 10 13 CFG=3
M  V30 13 1 10 14
M  V30 14 1 11 15
M  V30 15 2 12 16
M  V30 16 1 13 17
M  V30 17 2 15 18
M  V30 18 2 17 19
M  V30 19 1 17 20
M  V30 20 1 19 21
M  V30 21 2 20 22
M  V30 22 2 21 23
M  V30 23 1 4 6
M  V30 24 1 16 18
M  V30 25 1 22 23
M  V30 END BOND
M  V30 BEGIN COLLECTION
M  V30 MDLV30/STERAC1 ATOMS=(1 10)
M  V30 END COLLECTION
M  V30 END CTAB
M  END
>  <Rack>
PathogenBox_PlateD

>  <Position>
G11

>  <Compound ID>
MMV676411

>  <Disease Set>
TUBERCULOSIS

>  <Trivial Name>


>  <Total Molecular Weight>
325.38

>  <Molecular Weight Parent Molecule>
325.38

>  <Molecular Formula>
C17H15N3O2S

>  <Salt Name>


>  <Salt Coefficient>


>  <cLogP>
3.21

>  <SMILES>
CC(Oc1ccccc1)C(=O)Nc2nc(cs2)c3ccccn3

$$$$
Compound 311
Actelion Java MolfileCreator 2.0

  0  0  0  0  0  0              0 V3000
M  V30 BEGIN CTAB
M  V30 COUNTS 29 31 0 0 0
M  V30 BEGIN ATOM
M  V30 1 S 3.8971 0.0 0.0 0
M  V30 2 O 4.6471 1.299 0.0 0
M  V30 3 O 3.1471 1.299 0.0 0
M  V30 4 N 2.598 -0.75 0.0 0
M  V30 5 C 5.1961 -0.75 0.0 0
M  V30 6 C 2.598 -2.25 0.0 0
M  V30 7 C 1.299 0.0 0.0 0
M  V30 8 C 5.1961 -2.25 0.0 0
M  V30 9 C 6.4951 0.0 0.0 0
M  V30 10 C 1.299 -3.0 0.0 0
M  V30 11 C 3.8971 -3.0 0.0 0
M  V30 12 C 0.0 -0.75 0.0 0
M  V30 13 C 6.4951 -3.0 0.0 0
M  V30 14 C 7.7942 -0.75 0.0 0
M  V30 15 C -1.299 0.0 0.0 0
M  V30 16 C 0.0 -2.25 0.0 0
M  V30 17 C 7.7942 -2.25 0.0 0
M  V30 18 C -2.598 -0.75 0.0 0
M  V30 19 C -1.299 -3.0 0.0 0
M  V30 20 C 9.0932 -3.0 0.0 0
M  V30 21 C -2.598 -2.25 0.0 0
M  V30 22 O 10.3923 -2.25 0.0 0
M  V30 23 N 9.0932 -4.5 0.0 0
M  V30 24 C 10.3923 -5.25 0.0 0
M  V30 25 N 10.5491 -6.7417 0.0 0
M  V30 26 C 11.7626 -4.6399 0.0 0
M  V30 27 O 12.0163 -7.0536 0.0 0
M  V30 28 C 12.7663 -5.7546 0.0 0
M  V30 29 C 14.2581 -5.5978 0.0 0
M  V30 END ATOM
M  V30 BEGIN BOND
M  V30 1 2 1 2
M  V30 2 2 1 3
M  V30 3 1 1 4
M  V30 4 1 1 5
M  V30 5 1 4 6
M  V30 6 1 4 7
M  V30 7 2 5 8
M  V30 8 1 5 9
M  V30 9 1 6 10
M  V30 10 1 6 11
M  V30 11 1 7 12
M  V30 12 1 8 13
M  V30 13 2 9 14
M  V30 14 2 12 15
M  V30 15 1 12 16
M  V30 16 2 13 17
M  V30 17 1 15 18
M  V30 18 2 16 19
M  V30 19 1 17 20
M  V30 20 2 18 21
M  V30 21 2 20 22
M  V30 22 1 20 23
M  V30 23 1 23 24
M  V30 24 2 24 25
M  V30 25 1 24 26
M  V30 26 1 25 27
M  V30 27 2 26 28
M  V30 28 1 28 29
M  V30 29 1 14 17
M  V30 30 1 19 21
M  V30 31 1 27 28
M  V30 END BOND
M  V30 END CTAB
M  END
>  <Rack>
PathogenBox_PlateD

>  <Position>
H02

>  <Compound ID>
MMV007133

>  <Disease Set>
MALARIA

>  <Trivial Name>


>  <Total Molecular Weight>
413.50

>  <Molecular Weight Parent Molecule>
413.50

>  <Molecular Formula>
C21H23N3O4S

>  <Salt Name>


>  <Salt Coefficient>


>  <cLogP>
3.37

>  <SMILES>
CC(C)N(Cc1ccccc1)S(=O)(=O)c2ccc(cc2)C(=O)Nc3cc(C)on3

$$$$
Compound 312
Actelion Java MolfileCreator 2.0

  0  0  0  0  0  0              0 V3000
M  V30 BEGIN CTAB
M  V30 COUNTS 31 35 0 0 0
M  V30 BEGIN ATOM
M  V30 1 Cl 0.3774 3.5486 0.0 0
M  V30 2 C 1.3556 3.7565 0.0 0
M  V30 3 C 2.0247 3.0133 0.0 0
M  V30 4 C 1.6646 4.7075 0.0 0
M  V30 5 C 3.0028 3.2212 0.0 0
M  V30 6 C 2.6427 4.9154 0.0 0
M  V30 7 C 3.672 2.4781 0.0 0
M  V30 8 C 3.3118 4.1723 0.0 0
M  V30 9 C 3.4641 1.5 0.0 0
M  V30 10 C 4.6665 2.5826 0.0 0
M  V30 11 N 2.598 1.0 0.0 0
M  V30 12 N 4.3301 1.0 0.0 0
M  V30 13 N 5.0732 1.6691 0.0 0
M  V30 14 C 2.598 0.0 0.0 0
M  V30 15 C 4.3301 0.0 0.0 0
M  V30 16 C 1.732 -0.5 0.0 0
M  V30 17 C 3.4641 -0.4999 0.0 0
M  V30 18 O 1.732 -1.5 0.0 0
M  V30 19 N 0.866 0.0 0.0 0
M  V30 20 C 0.0 -0.5 0.0 0
M  V30 21 C -0.866 0.0 0.0 0
M  V30 22 C 0.0 -1.4999 0.0 0
M  V30 23 C -1.732 -0.4999 0.0 0
M  V30 24 C -0.866 -1.9999 0.0 0
M  V30 25 C -1.732 -1.4999 0.0 0
M  V30 26 N -2.598 -1.9999 0.0 0
M  V30 27 C -3.4641 -1.4999 0.0 0
M  V30 28 C -2.598 -2.9999 0.0 0
M  V30 29 C -4.3301 -1.9999 0.0 0
M  V30 30 C -3.4641 -3.4999 0.0 0
M  V30 31 N -4.3301 -2.9999 0.0 0
M  V30 END ATOM
M  V30 BEGIN BOND
M  V30 1 1 1 2
M  V30 2 2 2 3
M  V30 3 1 2 4
M  V30 4 1 3 5
M  V30 5 2 4 6
M  V30 6 1 5 7
M  V30 7 2 5 8
M  V30 8 2 7 9
M  V30 9 1 7 10
M  V30 10 1 9 11
M  V30 11 1 9 12
M  V30 12 2 10 13
M  V30 13 2 11 14
M  V30 14 1 12 15
M  V30 15 1 14 16
M  V30 16 1 14 17
M  V30 17 2 16 18
M  V30 18 1 16 19
M  V30 19 1 19 20
M  V30 20 2 20 21
M  V30 21 1 20 22
M  V30 22 1 21 23
M  V30 23 2 22 24
M  V30 24 2 23 25
M  V30 25 1 25 26
M  V30 26 1 26 27
M  V30 27 1 26 28
M  V30 28 1 27 29
M  V30 29 1 28 30
M  V30 30 1 29 31
M  V30 31 1 6 8
M  V30 32 1 12 13
M  V30 33 2 15 17
M  V30 34 1 24 25
M  V30 35 1 30 31
M  V30 END BOND
M  V30 END CTAB
M  END
>  <Rack>
PathogenBox_PlateD

>  <Position>
H03

>  <Compound ID>
MMV022478

>  <Disease Set>
MALARIA

>  <Trivial Name>


>  <Total Molecular Weight>
545.93

>  <Molecular Weight Parent Molecule>
432.91

>  <Molecular Formula>
C23H21N6OCl

>  <Salt Name>
Trifluoroacetate

>  <Salt Coefficient>
1

>  <cLogP>
2.55

>  <SMILES>
Clc1cccc(c1)c2cnn3ccc(nc23)C(=O)Nc4ccc(cc4)N5CCNCC5

$$$$
Compound 313
Actelion Java MolfileCreator 2.0

  0  0  0  0  0  0              0 V3000
M  V30 BEGIN CTAB
M  V30 COUNTS 25 28 0 0 0
M  V30 BEGIN ATOM
M  V30 1 S 0.866 0.0 0.0 0
M  V30 2 O 1.366 -0.866 0.0 0
M  V30 3 O 0.366 0.866 0.0 0
M  V30 4 N 1.732 0.4999 0.0 0
M  V30 5 C 0.0 -0.5 0.0 0
M  V30 6 C -0.866 0.0 0.0 0
M  V30 7 C 0.0 -1.4999 0.0 0
M  V30 8 N -1.732 -0.4999 0.0 0
M  V30 9 C -0.866 -1.9999 0.0 0
M  V30 10 C -1.732 -1.4999 0.0 0
M  V30 11 C -0.866 -2.9999 0.0 0
M  V30 12 N -1.732 -3.4999 0.0 0
M  V30 13 C 0.0 -3.4999 0.0 0
M  V30 14 C -1.732 -4.4999 0.0 0
M  V30 15 C 0.0 -4.4999 0.0 0
M  V30 16 C -0.866 -4.9999 0.0 0
M  V30 17 C -2.598 -4.9999 0.0 0
M  V30 18 N -0.866 -5.9999 0.0 0
M  V30 19 C -3.4641 -4.4999 0.0 0
M  V30 20 C -2.598 -5.9999 0.0 0
M  V30 21 C -1.732 -6.4999 0.0 0
M  V30 22 C -3.5686 -3.5054 0.0 0
M  V30 23 C -4.3776 -4.9067 0.0 0
M  V30 24 N -4.5467 -3.2975 0.0 0
M  V30 25 N -5.0467 -4.1635 0.0 0
M  V30 END ATOM
M  V30 BEGIN BOND
M  V30 1 2 1 2
M  V30 2 2 1 3
M  V30 3 1 1 4
M  V30 4 1 1 5
M  V30 5 2 5 6
M  V30 6 1 5 7
M  V30 7 1 6 8
M  V30 8 2 7 9
M  V30 9 2 8 10
M  V30 10 1 9 11
M  V30 11 2 11 12
M  V30 12 1 11 13
M  V30 13 1 12 14
M  V30 14 2 13 15
M  V30 15 1 14 16
M  V30 16 2 14 17
M  V30 17 2 16 18
M  V30 18 1 17 19
M  V30 19 1 17 20
M  V30 20 1 18 21
M  V30 21 1 19 22
M  V30 22 2 19 23
M  V30 23 2 22 24
M  V30 24 1 23 25
M  V30 25 1 9 10
M  V30 26 1 15 16
M  V30 27 2 20 21
M  V30 28 1 24 25
M  V30 END BOND
M  V30 END CTAB
M  END
>  <Rack>
PathogenBox_PlateD

>  <Position>
H04

>  <Compound ID>
MMV024101

>  <Disease Set>
MALARIA

>  <Trivial Name>


>  <Total Molecular Weight>
461.76

>  <Molecular Weight Parent Molecule>
352.38

>  <Molecular Formula>
C16H12N6O2S

>  <Salt Name>
Hydrochloride

>  <Salt Coefficient>
3

>  <cLogP>
0.16

>  <SMILES>
NS(=O)(=O)c1cncc(c1)c2ccc3nccc(c4cn[nH]c4)c3n2

$$$$
Compound 314
Actelion Java MolfileCreator 2.0

  0  0  0  0  0  0              0 V3000
M  V30 BEGIN CTAB
M  V30 COUNTS 22 24 0 0 0
M  V30 BEGIN ATOM
M  V30 1 F 2.598 -3.0 0.0 0
M  V30 2 C 2.598 -1.9999 0.0 0
M  V30 3 C 3.4641 -1.5 0.0 0
M  V30 4 C 1.732 -1.5 0.0 0
M  V30 5 C 3.4641 -0.5 0.0 0
M  V30 6 C 1.732 -0.5 0.0 0
M  V30 7 F 4.3301 0.0 0.0 0
M  V30 8 C 2.598 0.0 0.0 0
M  V30 9 N 0.866 0.0 0.0 0
M  V30 10 C 0.0 -0.5 0.0 0
M  V30 11 N 0.0 -1.5 0.0 0
M  V30 12 C -0.866 0.0 0.0 0
M  V30 13 C -0.866 -2.0 0.0 0
M  V30 14 N -1.0739 0.9781 0.0 0
M  V30 15 C -1.732 -0.4999 0.0 0
M  V30 16 N -1.732 -1.4999 0.0 0
M  V30 17 C -0.866 -3.0 0.0 0
M  V30 18 C -2.0684 1.0826 0.0 0
M  V30 19 N -2.4751 0.1691 0.0 0
M  V30 20 N -0.866 -4.0 0.0 0
M  V30 21 C -3.4533 -0.0387 0.0 0
M  V30 22 C -3.7623 -0.9898 0.0 0
M  V30 END ATOM
M  V30 BEGIN BOND
M  V30 1 1 1 2
M  V30 2 2 2 3
M  V30 3 1 2 4
M  V30 4 1 3 5
M  V30 5 2 4 6
M  V30 6 1 5 7
M  V30 7 2 5 8
M  V30 8 1 6 9
M  V30 9 1 9 10
M  V30 10 2 10 11
M  V30 11 1 10 12
M  V30 12 1 11 13
M  V30 13 1 12 14
M  V30 14 2 12 15
M  V30 15 2 13 16
M  V30 16 1 13 17
M  V30 17 2 14 18
M  V30 18 1 15 19
M  V30 19 3 17 20
M  V30 20 1 19 21
M  V30 21 1 21 22
M  V30 22 1 6 8
M  V30 23 1 15 16
M  V30 24 1 18 19
M  V30 END BOND
M  V30 END CTAB
M  END
>  <Rack>
PathogenBox_PlateD

>  <Position>
H05

>  <Compound ID>
MMV676881

>  <Disease Set>
MALARIA

>  <Trivial Name>


>  <Total Molecular Weight>
300.27

>  <Molecular Weight Parent Molecule>
300.27

>  <Molecular Formula>
C14H10N6F2

>  <Salt Name>


>  <Salt Coefficient>


>  <cLogP>
2.18

>  <SMILES>
CCn1cnc2c(Nc3cc(F)cc(F)c3)nc(nc12)C#N

$$$$
Compound 315
Actelion Java MolfileCreator 2.0

  0  0  0  0  0  0              0 V3000
M  V30 BEGIN CTAB
M  V30 COUNTS 25 28 0 0 0
M  V30 BEGIN ATOM
M  V30 1 O 2.598 0.0 0.0 0
M  V30 2 C 1.732 -0.5 0.0 0
M  V30 3 N 0.866 0.0 0.0 0
M  V30 4 C 1.732 -1.5 0.0 0
M  V30 5 C 0.866 1.0 0.0 0
M  V30 6 C 0.0 -0.5 0.0 0
M  V30 7 N 0.923 -2.0877 0.0 0
M  V30 8 C 2.541 -2.0877 0.0 0
M  V30 9 C 1.732 1.4999 0.0 0
M  V30 10 C 0.0 1.4999 0.0 0
M  V30 11 C 1.232 -3.0388 0.0 0
M  V30 12 C 2.232 -3.0388 0.0 0
M  V30 13 C 1.732 2.5 0.0 0
M  V30 14 C 0.0 2.5 0.0 0
M  V30 15 C 0.732 -3.9048 0.0 0
M  V30 16 C 2.732 -3.9048 0.0 0
M  V30 17 C 0.866 3.0 0.0 0
M  V30 18 C 1.232 -4.7708 0.0 0
M  V30 19 C 3.732 -3.9048 0.0 0
M  V30 20 C 2.232 -4.7708 0.0 0
M  V30 21 C 4.232 -4.7708 0.0 0
M  V30 22 C 4.232 -3.0388 0.0 0
M  V30 23 N 5.232 -4.7708 0.0 0
M  V30 24 N 5.232 -3.0388 0.0 0
M  V30 25 C 5.732 -3.9048 0.0 0
M  V30 END ATOM
M  V30 BEGIN BOND
M  V30 1 2 1 2
M  V30 2 1 2 3
M  V30 3 1 2 4
M  V30 4 1 3 5
M  V30 5 1 3 6
M  V30 6 1 4 7
M  V30 7 2 4 8
M  V30 8 2 5 9
M  V30 9 1 5 10
M  V30 10 1 7 11
M  V30 11 1 8 12
M  V30 12 1 9 13
M  V30 13 2 10 14
M  V30 14 1 11 15
M  V30 15 1 12 16
M  V30 16 2 13 17
M  V30 17 2 15 18
M  V30 18 1 16 19
M  V30 19 2 16 20
M  V30 20 2 19 21
M  V30 21 1 19 22
M  V30 22 1 21 23
M  V30 23 2 22 24
M  V30 24 2 23 25
M  V30 25 2 11 12
M  V30 26 1 14 17
M  V30 27 1 18 20
M  V30 28 1 24 25
M  V30 END BOND
M  V30 END CTAB
M  END
>  <Rack>
PathogenBox_PlateD

>  <Position>
H06

>  <Compound ID>
MMV024443

>  <Disease Set>
MALARIA

>  <Trivial Name>


>  <Total Molecular Weight>
328.37

>  <Molecular Weight Parent Molecule>
328.37

>  <Molecular Formula>
C20H16N4O

>  <Salt Name>


>  <Salt Coefficient>


>  <cLogP>
3.25

>  <SMILES>
CN(C(=O)c1cc2c(cccc2[nH]1)c3cncnc3)c4ccccc4

$$$$
Compound 316
Actelion Java MolfileCreator 2.0

  0  0  0  0  0  0              0 V3000
M  V30 BEGIN CTAB
M  V30 COUNTS 21 24 0 0 0
M  V30 BEGIN ATOM
M  V30 1 N 3.9327 1.0657 0.0 0
M  V30 2 C 2.9546 0.8577 0.0 0
M  V30 3 C 4.6018 0.3225 0.0 0
M  V30 4 N 2.2854 1.6009 0.0 0
M  V30 5 C 2.6455 -0.0932 0.0 0
M  V30 6 N 4.2928 -0.6284 0.0 0
M  V30 7 C 3.3147 -0.8364 0.0 0
M  V30 8 C 1.732 -0.5 0.0 0
M  V30 9 N 2.8147 -1.7024 0.0 0
M  V30 10 N 1.8365 -1.4945 0.0 0
M  V30 11 C 0.866 0.0 0.0 0
M  V30 12 C 0.0 -0.5 0.0 0
M  V30 13 C 0.0 -1.4999 0.0 0
M  V30 14 C -0.866 0.0 0.0 0
M  V30 15 C -0.866 -2.0 0.0 0
M  V30 16 C 0.866 -1.9999 0.0 0
M  V30 17 C -1.732 -0.5 0.0 0
M  V30 18 C -1.732 -1.5 0.0 0
M  V30 19 C -0.866 -3.0 0.0 0
M  V30 20 C 0.866 -2.9999 0.0 0
M  V30 21 C 0.0 -3.4999 0.0 0
M  V30 END ATOM
M  V30 BEGIN BOND
M  V30 1 2 1 2
M  V30 2 1 1 3
M  V30 3 1 2 4
M  V30 4 1 2 5
M  V30 5 2 3 6
M  V30 6 2 5 7
M  V30 7 1 5 8
M  V30 8 1 7 9
M  V30 9 2 8 10
M  V30 10 1 8 11
M  V30 11 1 11 12
M  V30 12 1 12 13
M  V30 13 2 12 14
M  V30 14 1 13 15
M  V30 15 2 13 16
M  V30 16 1 14 17
M  V30 17 1 15 18
M  V30 18 2 15 19
M  V30 19 1 16 20
M  V30 20 1 19 21
M  V30 21 1 6 7
M  V30 22 1 9 10
M  V30 23 2 17 18
M  V30 24 2 20 21
M  V30 END BOND
M  V30 END CTAB
M  END
>  <Rack>
PathogenBox_PlateD

>  <Position>
H07

>  <Compound ID>
MMV688469

>  <Disease Set>
TOXOPLASMOSIS

>  <Trivial Name>


>  <Total Molecular Weight>
275.31

>  <Molecular Weight Parent Molecule>
275.31

>  <Molecular Formula>
C16H13N5

>  <Salt Name>


>  <Salt Coefficient>


>  <cLogP>
2.33

>  <SMILES>
Nc1ncnc2[nH]nc(Cc3cccc4ccccc34)c12

$$$$
Compound 317
Actelion Java MolfileCreator 2.0

  0  0  0  0  0  0              0 V3000
M  V30 BEGIN CTAB
M  V30 COUNTS 28 31 0 0 0
M  V30 BEGIN ATOM
M  V30 1 F 2.4641 2.5 0.0 0
M  V30 2 C 3.4641 2.5 0.0 0
M  V30 3 F 3.4641 3.5 0.0 0
M  V30 4 F 4.4641 2.5 0.0 0
M  V30 5 C 3.4641 1.5 0.0 0
M  V30 6 C 2.598 1.0 0.0 0
M  V30 7 C 4.3301 1.0 0.0 0
M  V30 8 C 2.598 0.0 0.0 0
M  V30 9 C 4.3301 0.0 0.0 0
M  V30 10 C 1.732 -0.5 0.0 0
M  V30 11 C 3.4641 -0.4999 0.0 0
M  V30 12 O 1.732 -1.5 0.0 0
M  V30 13 N 0.866 0.0 0.0 0
M  V30 14 C 0.0 -0.5 0.0 0 CFG=2
M  V30 15 C -0.9135 -0.0932 0.0 0
M  V30 16 C -0.1045 -1.4945 0.0 0
M  V30 17 N -1.5826 -0.8364 0.0 0
M  V30 18 C -1.0826 -1.7024 0.0 0
M  V30 19 C -2.5771 -0.7318 0.0 0
M  V30 20 C -2.9839 0.1816 0.0 0
M  V30 21 C -3.1649 -1.5408 0.0 0
M  V30 22 C -3.9784 0.2861 0.0 0
M  V30 23 C -2.3961 0.9906 0.0 0
M  V30 24 C -4.1595 -1.4363 0.0 0
M  V30 25 N -4.5662 -0.5228 0.0 0
M  V30 26 C -4.3851 1.1997 0.0 0
M  V30 27 C -2.8028 1.9042 0.0 0
M  V30 28 C -3.7974 2.0087 0.0 0
M  V30 END ATOM
M  V30 BEGIN BOND
M  V30 1 1 1 2
M  V30 2 1 2 3
M  V30 3 1 2 4
M  V30 4 1 2 5
M  V30 5 2 5 6
M  V30 6 1 5 7
M  V30 7 1 6 8
M  V30 8 2 7 9
M  V30 9 1 8 10
M  V30 10 2 8 11
M  V30 11 2 10 12
M  V30 12 1 10 13
M  V30 13 1 14 13 CFG=1
M  V30 14 1 14 15
M  V30 15 1 14 16
M  V30 16 1 15 17
M  V30 17 1 16 18
M  V30 18 1 17 19
M  V30 19 1 19 20
M  V30 20 2 19 21
M  V30 21 1 20 22
M  V30 22 2 20 23
M  V30 23 1 21 24
M  V30 24 1 22 25
M  V30 25 2 22 26
M  V30 26 1 23 27
M  V30 27 1 26 28
M  V30 28 1 9 11
M  V30 29 1 17 18
M  V30 30 2 24 25
M  V30 31 2 27 28
M  V30 END BOND
M  V30 BEGIN COLLECTION
M  V30 MDLV30/STERAC1 ATOMS=(1 14)
M  V30 END COLLECTION
M  V30 END CTAB
M  END
>  <Rack>
PathogenBox_PlateD

>  <Position>
H08

>  <Compound ID>
MMV023388

>  <Disease Set>
MALARIA

>  <Trivial Name>


>  <Total Molecular Weight>
385.39

>  <Molecular Weight Parent Molecule>
385.39

>  <Molecular Formula>
C21H18N3OF3

>  <Salt Name>


>  <Salt Coefficient>


>  <cLogP>
3.92

>  <SMILES>
FC(F)(F)c1cccc(c1)C(=O)NC2CCN(C2)c3ccnc4ccccc34

$$$$
Compound 318
Actelion Java MolfileCreator 2.0

  0  0  0  0  0  0              0 V3000
M  V30 BEGIN CTAB
M  V30 COUNTS 25 27 0 0 0
M  V30 BEGIN ATOM
M  V30 1 Cl 3.4641 -1.4999 0.0 0
M  V30 2 C 3.4641 -0.4999 0.0 0
M  V30 3 C 4.3301 0.0 0.0 0
M  V30 4 C 2.598 0.0 0.0 0
M  V30 5 C 5.1961 -0.4999 0.0 0
M  V30 6 C 4.3301 1.0 0.0 0
M  V30 7 C 2.598 1.0 0.0 0
M  V30 8 C 1.732 -0.5 0.0 0
M  V30 9 N 6.0621 0.0 0.0 0
M  V30 10 N 5.1961 -1.4999 0.0 0
M  V30 11 N 5.1961 1.5 0.0 0
M  V30 12 C 3.4641 1.5 0.0 0
M  V30 13 N 0.866 0.0 0.0 0
M  V30 14 C 6.0621 1.0 0.0 0
M  V30 15 C 0.0 -0.5 0.0 0
M  V30 16 N 6.9282 1.5 0.0 0
M  V30 17 C -0.866 0.0 0.0 0
M  V30 18 C 0.0 -1.4999 0.0 0
M  V30 19 O -0.866 1.0 0.0 0
M  V30 20 C -1.732 -0.4999 0.0 0
M  V30 21 C -0.866 -1.9999 0.0 0
M  V30 22 C -1.732 1.5 0.0 0
M  V30 23 C -1.732 -1.4999 0.0 0
M  V30 24 O -0.866 -2.9999 0.0 0
M  V30 25 C 0.0 -3.4999 0.0 0
M  V30 END ATOM
M  V30 BEGIN BOND
M  V30 1 1 1 2
M  V30 2 1 2 3
M  V30 3 2 2 4
M  V30 4 2 3 5
M  V30 5 1 3 6
M  V30 6 1 4 7
M  V30 7 1 4 8
M  V30 8 1 5 9
M  V30 9 1 5 10
M  V30 10 2 6 11
M  V30 11 1 6 12
M  V30 12 1 8 13
M  V30 13 2 9 14
M  V30 14 1 13 15
M  V30 15 1 14 16
M  V30 16 2 15 17
M  V30 17 1 15 18
M  V30 18 1 17 19
M  V30 19 1 17 20
M  V30 20 2 18 21
M  V30 21 1 19 22
M  V30 22 2 20 23
M  V30 23 1 21 24
M  V30 24 1 24 25
M  V30 25 2 7 12
M  V30 26 1 11 14
M  V30 27 1 21 23
M  V30 END BOND
M  V30 END CTAB
M  END
>  <Rack>
PathogenBox_PlateD

>  <Position>
H09

>  <Compound ID>
MMV675968

>  <Disease Set>
CRYPTOSPORIDIOSIS

>  <Trivial Name>


>  <Total Molecular Weight>
359.81

>  <Molecular Weight Parent Molecule>
359.81

>  <Molecular Formula>
C17H18N5O2Cl

>  <Salt Name>


>  <Salt Coefficient>


>  <cLogP>
2.31

>  <SMILES>
COc1ccc(OC)c(NCc2ccc3nc(N)nc(N)c3c2Cl)c1

$$$$
Compound 319
Actelion Java MolfileCreator 2.0

  0  0  0  0  0  0              0 V3000
M  V30 BEGIN CTAB
M  V30 COUNTS 26 28 0 0 0
M  V30 BEGIN ATOM
M  V30 1 O 4.3301 0.0 0.0 0
M  V30 2 C 3.4641 -0.5 0.0 0
M  V30 3 N 2.598 0.0 0.0 0
M  V30 4 C 3.4641 -1.5 0.0 0
M  V30 5 C 2.598 1.0 0.0 0
M  V30 6 C 1.732 -0.5 0.0 0
M  V30 7 C 2.598 -1.9999 0.0 0
M  V30 8 C 4.3301 -2.0 0.0 0
M  V30 9 C 3.4641 1.5 0.0 0
M  V30 10 C 1.732 1.5 0.0 0
M  V30 11 C 0.866 0.0 0.0 0
M  V30 12 C 2.598 -2.9999 0.0 0
M  V30 13 C 4.3301 -3.0 0.0 0
M  V30 14 C 3.4641 2.5 0.0 0
M  V30 15 C 1.732 2.5 0.0 0
M  V30 16 C 0.0 -0.5 0.0 0
M  V30 17 C 3.4641 -3.5 0.0 0
M  V30 18 C 2.598 3.0 0.0 0
M  V30 19 N -0.866 0.0 0.0 0
M  V30 20 C 0.0 -1.4999 0.0 0
M  V30 21 O 2.598 4.0 0.0 0
M  V30 22 C -1.732 -0.4999 0.0 0
M  V30 23 C -0.866 -1.9999 0.0 0
M  V30 24 C 1.732 4.5 0.0 0
M  V30 25 C -1.732 -1.4999 0.0 0
M  V30 26 C -2.598 0.0 0.0 0
M  V30 END ATOM
M  V30 BEGIN BOND
M  V30 1 2 1 2
M  V30 2 1 2 3
M  V30 3 1 2 4
M  V30 4 1 3 5
M  V30 5 1 3 6
M  V30 6 1 4 7
M  V30 7 1 4 8
M  V30 8 2 5 9
M  V30 9 1 5 10
M  V30 10 1 6 11
M  V30 11 1 7 12
M  V30 12 1 8 13
M  V30 13 1 9 14
M  V30 14 2 10 15
M  V30 15 1 11 16
M  V30 16 1 12 17
M  V30 17 2 14 18
M  V30 18 2 16 19
M  V30 19 1 16 20
M  V30 20 1 18 21
M  V30 21 1 19 22
M  V30 22 2 20 23
M  V30 23 1 21 24
M  V30 24 2 22 25
M  V30 25 1 22 26
M  V30 26 1 13 17
M  V30 27 1 15 18
M  V30 28 1 23 25
M  V30 END BOND
M  V30 END CTAB
M  END
>  <Rack>
PathogenBox_PlateD

>  <Position>
H10

>  <Compound ID>
MMV675996

>  <Disease Set>
ONCHOCERCIASIS

>  <Trivial Name>


>  <Total Molecular Weight>
352.47

>  <Molecular Weight Parent Molecule>
352.47

>  <Molecular Formula>
C22H28N2O2

>  <Salt Name>


>  <Salt Coefficient>


>  <cLogP>
4.19

>  <SMILES>
COc1ccc(cc1)N(CCc2cccc(C)n2)C(=O)C3CCCCC3

$$$$
Compound 320
Actelion Java MolfileCreator 2.0

  0  0  0  0  0  0              0 V3000
M  V30 BEGIN CTAB
M  V30 COUNTS 23 24 0 0 0
M  V30 BEGIN ATOM
M  V30 1 S 3.4641 -0.5 0.0 0
M  V30 2 C 4.3301 0.0 0.0 0
M  V30 3 C 2.598 0.0 0.0 0 CFG=2
M  V30 4 N 5.1961 -0.4999 0.0 0
M  V30 5 N 4.3301 0.9999 0.0 0
M  V30 6 C 1.732 -0.5 0.0 0
M  V30 7 C 2.598 1.0 0.0 0
M  V30 8 C 6.0621 0.0 0.0 0
M  V30 9 C 5.1961 1.4999 0.0 0
M  V30 10 C 3.4641 1.4999 0.0 0
M  V30 11 O 1.732 -1.5 0.0 0
M  V30 12 N 0.866 0.0 0.0 0
M  V30 13 C 6.0621 1.0 0.0 0
M  V30 14 C 6.9282 -0.5 0.0 0
M  V30 15 O 5.1961 2.4999 0.0 0
M  V30 16 C 0.0 -0.5 0.0 0
M  V30 17 C 7.7942 0.0 0.0 0
M  V30 18 C -0.866 0.0 0.0 0
M  V30 19 C 0.0 -1.4999 0.0 0
M  V30 20 C -1.732 -0.4999 0.0 0
M  V30 21 C -0.866 -1.9999 0.0 0
M  V30 22 C -1.732 -1.4999 0.0 0
M  V30 23 F -2.598 -1.9999 0.0 0
M  V30 END ATOM
M  V30 BEGIN BOND
M  V30 1 1 1 2
M  V30 2 1 3 1 CFG=3
M  V30 3 2 2 4
M  V30 4 1 2 5
M  V30 5 1 3 6
M  V30 6 1 3 7
M  V30 7 1 4 8
M  V30 8 1 5 9
M  V30 9 1 5 10
M  V30 10 2 6 11
M  V30 11 1 6 12
M  V30 12 2 8 13
M  V30 13 1 8 14
M  V30 14 2 9 15
M  V30 15 1 12 16
M  V30 16 1 14 17
M  V30 17 2 16 18
M  V30 18 1 16 19
M  V30 19 1 18 20
M  V30 20 2 19 21
M  V30 21 2 20 22
M  V30 22 1 22 23
M  V30 23 1 9 13
M  V30 24 1 21 22
M  V30 END BOND
M  V30 BEGIN COLLECTION
M  V30 MDLV30/STERAC1 ATOMS=(1 3)
M  V30 END COLLECTION
M  V30 END CTAB
M  END
>  <Rack>
PathogenBox_PlateD

>  <Position>
H11

>  <Compound ID>
MMV688980

>  <Disease Set>
MALARIA

>  <Trivial Name>


>  <Total Molecular Weight>
335.40

>  <Molecular Weight Parent Molecule>
335.40

>  <Molecular Formula>
C16H18N3O2FS

>  <Salt Name>


>  <Salt Coefficient>


>  <cLogP>
2.28

>  <SMILES>
CCC1=CC(=O)N(C)C(=N1)SC(C)C(=O)Nc2ccc(F)cc2

$$$$
Compound 321
Actelion Java MolfileCreator 2.0

  0  0  0  0  0  0              0 V3000
M  V30 BEGIN CTAB
M  V30 COUNTS 21 23 0 0 0
M  V30 BEGIN ATOM
M  V30 1 F 7.2451 -1.7009 0.0 0
M  V30 2 C 6.4951 -3.0 0.0 0
M  V30 3 F 7.7942 -3.75 0.0 0
M  V30 4 F 5.7451 -4.299 0.0 0
M  V30 5 C 5.1961 -2.2499 0.0 0
M  V30 6 C 5.1961 -0.75 0.0 0
M  V30 7 C 3.8971 -2.9999 0.0 0
M  V30 8 C 3.8971 0.0 0.0 0
M  V30 9 C 2.598 -2.25 0.0 0
M  V30 10 C 2.598 -0.75 0.0 0
M  V30 11 N 1.299 0.0 0.0 0
M  V30 12 C 0.0 -0.75 0.0 0
M  V30 13 N 0.0 -2.25 0.0 0
M  V30 14 C -1.299 0.0 0.0 0
M  V30 15 C -1.299 -2.9999 0.0 0
M  V30 16 C 1.1147 -3.2536 0.0 0
M  V30 17 C -2.598 -0.7499 0.0 0
M  V30 18 N -2.598 -2.2499 0.0 0
M  V30 19 N -0.9871 -4.4672 0.0 0
M  V30 20 C 0.5046 -4.624 0.0 0
M  V30 21 C -3.8971 0.0 0.0 0
M  V30 END ATOM
M  V30 BEGIN BOND
M  V30 1 1 1 2
M  V30 2 1 2 3
M  V30 3 1 2 4
M  V30 4 1 2 5
M  V30 5 2 5 6
M  V30 6 1 5 7
M  V30 7 1 6 8
M  V30 8 2 7 9
M  V30 9 2 8 10
M  V30 10 1 10 11
M  V30 11 1 11 12
M  V30 12 1 12 13
M  V30 13 2 12 14
M  V30 14 1 13 15
M  V30 15 1 13 16
M  V30 16 1 14 17
M  V30 17 1 15 18
M  V30 18 2 15 19
M  V30 19 2 16 20
M  V30 20 1 17 21
M  V30 21 1 9 10
M  V30 22 2 17 18
M  V30 23 1 19 20
M  V30 END BOND
M  V30 END CTAB
M  END
>  <Rack>
PathogenBox_PlateE

>  <Position>
A02

>  <Compound ID>
MMV011229

>  <Disease Set>
MALARIA

>  <Trivial Name>


>  <Total Molecular Weight>
292.26

>  <Molecular Weight Parent Molecule>
292.26

>  <Molecular Formula>
C14H11N4F3

>  <Salt Name>


>  <Salt Coefficient>


>  <cLogP>
2.99

>  <SMILES>
CC1=NC2=NC=CN2C(NC3=CC=C(C(F)(F)F)C=C3)=C1

$$$$
Compound 322
Actelion Java MolfileCreator 2.0

  0  0  0  0  0  0              0 V3000
M  V30 BEGIN CTAB
M  V30 COUNTS 17 17 0 0 0
M  V30 BEGIN ATOM
M  V30 1 Cl 4.3301 0.9999 0.0 0
M  V30 2 C 4.3301 0.0 0.0 0
M  V30 3 C 3.4641 -0.5 0.0 0
M  V30 4 C 5.1961 -0.5 0.0 0
M  V30 5 C 2.598 0.0 0.0 0
M  V30 6 C 3.4641 -1.5 0.0 0
M  V30 7 C 5.1961 -1.5 0.0 0
M  V30 8 O 2.598 1.0 0.0 0
M  V30 9 C 1.732 -0.5 0.0 0
M  V30 10 C 4.3301 -2.0 0.0 0
M  V30 11 Cl 6.0621 -2.0 0.0 0
M  V30 12 C 0.866 0.0 0.0 0 CFG=2
M  V30 13 N 0.866 1.0 0.0 0
M  V30 14 C 0.0 -0.5 0.0 0
M  V30 15 Cl 0.4999 -1.366 0.0 0
M  V30 16 Cl -0.866 -0.9999 0.0 0
M  V30 17 Cl -0.4999 0.366 0.0 0
M  V30 END ATOM
M  V30 BEGIN BOND
M  V30 1 1 1 2
M  V30 2 2 2 3
M  V30 3 1 2 4
M  V30 4 1 3 5
M  V30 5 1 3 6
M  V30 6 2 4 7
M  V30 7 2 5 8
M  V30 8 1 5 9
M  V30 9 2 6 10
M  V30 10 1 7 11
M  V30 11 1 12 9
M  V30 12 1 12 13 CFG=1
M  V30 13 1 12 14
M  V30 14 1 14 15
M  V30 15 1 14 16
M  V30 16 1 14 17
M  V30 17 1 7 10
M  V30 END BOND
M  V30 BEGIN COLLECTION
M  V30 MDLV30/STERAC1 ATOMS=(1 12)
M  V30 END COLLECTION
M  V30 END CTAB
M  END
>  <Rack>
PathogenBox_PlateE

>  <Position>
A03

>  <Compound ID>
MMV676468

>  <Disease Set>
TUBERCULOSIS

>  <Trivial Name>


>  <Total Molecular Weight>
335.44

>  <Molecular Weight Parent Molecule>
335.44

>  <Molecular Formula>
C10H8NOCl5

>  <Salt Name>


>  <Salt Coefficient>


>  <cLogP>
3.68

>  <SMILES>
NC(CC(=O)c1ccc(Cl)cc1Cl)C(Cl)(Cl)Cl

$$$$
Compound 323
Actelion Java MolfileCreator 2.0

  0  0  0  0  0  0              0 V3000
M  V30 BEGIN CTAB
M  V30 COUNTS 23 25 0 0 0
M  V30 BEGIN ATOM
M  V30 1 S 3.9684 -0.1398 0.0 0
M  V30 2 C 2.598 -0.75 0.0 0
M  V30 3 C 4.972 -1.2546 0.0 0
M  V30 4 N 2.7548 -2.2417 0.0 0
M  V30 5 N 1.299 0.0 0.0 0
M  V30 6 N 4.222 -2.5536 0.0 0
M  V30 7 C 6.3423 -1.8647 0.0 0
M  V30 8 C 6.1855 -0.3729 0.0 0
M  V30 9 C 0.0 -0.75 0.0 0
M  V30 10 C 4.8322 -3.9239 0.0 0
M  V30 11 C -1.299 0.0 0.0 0
M  V30 12 C 0.0 -2.25 0.0 0
M  V30 13 O 3.9505 -5.1375 0.0 0
M  V30 14 C 6.3239 -4.0807 0.0 0
M  V30 15 C -2.598 -0.75 0.0 0
M  V30 16 C -1.299 -3.0 0.0 0
M  V30 17 C 6.934 -5.451 0.0 0
M  V30 18 C 7.2056 -2.8672 0.0 0
M  V30 19 C -2.598 -2.25 0.0 0
M  V30 20 C 8.4258 -5.6078 0.0 0
M  V30 21 C 6.0524 -6.6646 0.0 0
M  V30 22 C 8.6974 -3.024 0.0 0
M  V30 23 C 9.3075 -4.3943 0.0 0
M  V30 END ATOM
M  V30 BEGIN BOND
M  V30 1 1 1 2
M  V30 2 1 1 3
M  V30 3 2 2 4
M  V30 4 1 2 5
M  V30 5 1 3 6
M  V30 6 1 3 7
M  V30 7 1 3 8
M  V30 8 1 5 9
M  V30 9 1 6 10
M  V30 10 2 9 11
M  V30 11 1 9 12
M  V30 12 2 10 13
M  V30 13 1 10 14
M  V30 14 1 11 15
M  V30 15 2 12 16
M  V30 16 2 14 17
M  V30 17 1 14 18
M  V30 18 2 15 19
M  V30 19 1 17 20
M  V30 20 1 17 21
M  V30 21 2 18 22
M  V30 22 2 20 23
M  V30 23 1 4 6
M  V30 24 1 16 19
M  V30 25 1 22 23
M  V30 END BOND
M  V30 END CTAB
M  END
>  <Rack>
PathogenBox_PlateE

>  <Position>
A04

>  <Compound ID>
MMV688771

>  <Disease Set>
SCHISTOSOMIASIS

>  <Trivial Name>


>  <Total Molecular Weight>
325.43

>  <Molecular Weight Parent Molecule>
325.43

>  <Molecular Formula>
C18H19N3OS

>  <Salt Name>


>  <Salt Coefficient>


>  <cLogP>
4.73

>  <SMILES>
Cc1ccccc1C(=O)N2N=C(Nc3ccccc3)SC2(C)C

$$$$
Compound 324
Actelion Java MolfileCreator 2.0

  0  0  0  0  0  0              0 V3000
M  V30 BEGIN CTAB
M  V30 COUNTS 26 29 0 0 0
M  V30 BEGIN ATOM
M  V30 1 F 3.4641 -4.4999 0.0 0
M  V30 2 C 3.4641 -3.4999 0.0 0
M  V30 3 C 4.3301 -3.0 0.0 0
M  V30 4 C 2.598 -2.9999 0.0 0
M  V30 5 N 5.1961 -3.5 0.0 0
M  V30 6 C 4.3301 -1.9999 0.0 0
M  V30 7 C 2.598 -2.0 0.0 0
M  V30 8 C 5.1961 -4.5 0.0 0
M  V30 9 C 6.0621 -3.0 0.0 0
M  V30 10 O 5.1961 -1.4999 0.0 0
M  V30 11 C 3.4641 -1.5 0.0 0
M  V30 12 C 1.732 -1.5 0.0 0
M  V30 13 C 6.0621 -5.0 0.0 0
M  V30 14 C 6.9282 -3.5 0.0 0
M  V30 15 C 5.1961 -0.4999 0.0 0
M  V30 16 N 3.4641 -0.5 0.0 0
M  V30 17 O 0.866 -2.0 0.0 0
M  V30 18 C 1.732 -0.5 0.0 0
M  V30 19 N 6.9282 -4.5 0.0 0
M  V30 20 C 4.3301 0.0 0.0 0 CFG=1
M  V30 21 C 2.598 0.0 0.0 0
M  V30 22 C 0.866 0.0 0.0 0
M  V30 23 C 7.7942 -5.0 0.0 0
M  V30 24 C 4.3301 0.9999 0.0 0
M  V30 25 O 0.866 1.0 0.0 0
M  V30 26 O 0.0 -0.5 0.0 0
M  V30 END ATOM
M  V30 BEGIN BOND
M  V30 1 1 1 2
M  V30 2 2 2 3
M  V30 3 1 2 4
M  V30 4 1 3 5
M  V30 5 1 3 6
M  V30 6 2 4 7
M  V30 7 1 5 8
M  V30 8 1 5 9
M  V30 9 1 6 10
M  V30 10 2 6 11
M  V30 11 1 7 12
M  V30 12 1 8 13
M  V30 13 1 9 14
M  V30 14 1 10 15
M  V30 15 1 11 16
M  V30 16 2 12 17
M  V30 17 1 12 18
M  V30 18 1 13 19
M  V30 19 1 20 15
M  V30 20 1 16 21
M  V30 21 1 18 22
M  V30 22 1 19 23
M  V30 23 1 20 24 CFG=1
M  V30 24 2 22 25
M  V30 25 1 22 26
M  V30 26 1 7 11
M  V30 27 1 14 19
M  V30 28 1 16 20
M  V30 29 2 18 21
M  V30 END BOND
M  V30 BEGIN COLLECTION
M  V30 MDLV30/STEABS ATOMS=(1 20)
M  V30 END COLLECTION
M  V30 END CTAB
M  END
>  <Rack>
PathogenBox_PlateE

>  <Position>
A05

>  <Compound ID>
MMV687798

>  <Disease Set>
REFERENCE COMPOUNDS

>  <Trivial Name>
Levofloxacin (-)-ofloxacin

>  <Total Molecular Weight>
361.37

>  <Molecular Weight Parent Molecule>
361.37

>  <Molecular Formula>
C18H20N3O4F

>  <Salt Name>


>  <Salt Coefficient>


>  <cLogP>
-0.34

>  <SMILES>
C[C@H]1COc2c(N3CCN(C)CC3)c(F)cc4C(=O)C(=CN1c24)C(=O)O

$$$$
Compound 325
Actelion Java MolfileCreator 2.0

  0  0  0  0  0  0              0 V3000
M  V30 BEGIN CTAB
M  V30 COUNTS 59 63 0 0 0
M  V30 BEGIN ATOM
M  V30 1 O 2.9008 -3.3261 0.0 0
M  V30 2 C 2.3763 -2.4747 0.0 0
M  V30 3 N 3.152 -1.8435 0.0 0
M  V30 4 C 1.4637 -2.8836 0.0 0
M  V30 5 C 3.4641 -0.5 0.0 0
M  V30 6 C 0.4764 -3.0423 0.0 0
M  V30 7 C 1.75 -3.8417 0.0 0
M  V30 8 C 4.3301 0.0 0.0 0
M  V30 9 C 2.598 0.0 0.0 0
M  V30 10 C -0.5183 -2.9401 0.0 0
M  V30 11 O 5.1704 -0.5421 0.0 0
M  V30 12 C 4.4618 1.3298 0.0 0
M  V30 13 C 2.598 0.9999 0.0 0
M  V30 14 C 1.732 -0.5 0.0 0
M  V30 15 C -1.4527 -2.584 0.0 0
M  V30 16 C 5.2321 1.9675 0.0 0
M  V30 17 C 3.5244 1.678 0.0 0
M  V30 18 O 1.7062 1.4524 0.0 0
M  V30 19 N 0.866 0.0 0.0 0
M  V30 20 C -2.1935 -2.1323 0.0 0 CFG=1
M  V30 21 O 6.1695 1.6193 0.0 0
M  V30 22 C 5.0649 2.9534 0.0 0
M  V30 23 C 3.3572 2.664 0.0 0
M  V30 24 N 0.0 -0.5 0.0 0
M  V30 25 C -2.8942 -1.2224 0.0 0 CFG=2
M  V30 26 C -2.9497 -2.7251 0.0 0
M  V30 27 C 4.1275 3.3017 0.0 0
M  V30 28 C 5.8352 3.5911 0.0 0
M  V30 29 C 2.5127 3.1995 0.0 0
M  V30 30 C -0.866 0.0 0.0 0
M  V30 31 C 0.0 -1.4999 0.0 0
M  V30 32 O -3.7457 -1.7469 0.0 0
M  V30 33 C -3.3031 -0.3099 0.0 0 CFG=2
M  V30 34 O 3.7591 4.2313 0.0 0
M  V30 35 O 1.5831 2.831 0.0 0
M  V30 36 C 2.7611 4.1682 0.0 0 CFG=2
M  V30 37 C -1.732 -0.5 0.0 0
M  V30 38 C -0.866 -1.9999 0.0 0
M  V30 39 C -3.4619 0.6774 0.0 0 CFG=1
M  V30 40 C -4.2613 -0.5961 0.0 0
M  V30 41 O 1.2526 4.5136 0.0 0
M  V30 42 C 2.8419 5.1649 0.0 0
M  V30 43 N -1.732 -1.4999 0.0 0
M  V30 44 O -4.4615 0.6488 0.0 0
M  V30 45 C -3.3597 1.6721 0.0 0 CFG=2
M  V30 46 C 0.2653 4.3548 0.0 0
M  V30 47 C -2.6877 -1.9957 0.0 0
M  V30 48 C -3.0035 2.6065 0.0 0 CFG=2
M  V30 49 C -4.3326 1.9033 0.0 0
M  V30 50 C -0.7294 4.457 0.0 0
M  V30 51 O -3.8835 3.0816 0.0 0
M  V30 52 C -2.4177 3.4169 0.0 0 CFG=1
M  V30 53 C -1.642 4.0481 0.0 0 CFG=1
M  V30 54 C -3.912 4.0812 0.0 0
M  V30 55 C -3.1141 4.054 0.0 0
M  V30 56 O -2.1665 4.8995 0.0 0
M  V30 57 O -3.0606 4.6057 0.0 0
M  V30 58 C -4.7919 4.5563 0.0 0
M  V30 59 C -1.6914 5.7794 0.0 0
M  V30 END ATOM
M  V30 BEGIN BOND
M  V30 1 2 1 2
M  V30 2 1 2 3
M  V30 3 1 2 4
M  V30 4 2 3 5
M  V30 5 2 4 6
M  V30 6 1 4 7
M  V30 7 1 5 8
M  V30 8 1 5 9
M  V30 9 1 6 10
M  V30 10 1 8 11
M  V30 11 2 8 12
M  V30 12 1 9 13
M  V30 13 2 9 14
M  V30 14 2 10 15
M  V30 15 1 12 16
M  V30 16 1 12 17
M  V30 17 1 13 18
M  V30 18 1 14 19
M  V30 19 1 20 15
M  V30 20 1 16 21
M  V30 21 2 16 22
M  V30 22 1 17 23
M  V30 23 1 19 24
M  V30 24 1 25 20
M  V30 25 1 20 26 CFG=3
M  V30 26 1 22 27
M  V30 27 1 22 28
M  V30 28 1 23 29
M  V30 29 1 24 30
M  V30 30 1 24 31
M  V30 31 1 25 32 CFG=3
M  V30 32 1 33 25
M  V30 33 1 27 34
M  V30 34 2 29 35
M  V30 35 1 36 29
M  V30 36 1 30 37
M  V30 37 1 31 38
M  V30 38 1 39 33
M  V30 39 1 33 40 CFG=1
M  V30 40 1 36 41
M  V30 41 1 36 42 CFG=3
M  V30 42 1 37 43
M  V30 43 1 39 44 CFG=1
M  V30 44 1 45 39
M  V30 45 1 41 46
M  V30 46 1 43 47
M  V30 47 1 48 45
M  V30 48 1 45 49 CFG=1
M  V30 49 2 46 50
M  V30 50 1 48 51 CFG=3
M  V30 51 1 52 48
M  V30 52 1 53 50
M  V30 53 1 51 54
M  V30 54 1 52 55 CFG=3
M  V30 55 1 53 56 CFG=1
M  V30 56 2 54 57
M  V30 57 1 54 58
M  V30 58 1 56 59
M  V30 59 2 13 17
M  V30 60 2 23 27
M  V30 61 1 34 36
M  V30 62 1 38 43
M  V30 63 1 52 53
M  V30 END BOND
M  V30 BEGIN COLLECTION
M  V30 MDLV30/STEABS ATOMS=(9 20 25 33 36 39 45 48 52 53)
M  V30 END COLLECTION
M  V30 END CTAB
M  END
>  <Rack>
PathogenBox_PlateE

>  <Position>
A06

>  <Compound ID>
MMV688775

>  <Disease Set>
REFERENCE COMPOUNDS

>  <Trivial Name>
Rifampicin

>  <Total Molecular Weight>
822.94

>  <Molecular Weight Parent Molecule>
822.94

>  <Molecular Formula>
C43H58N4O12

>  <Salt Name>


>  <Salt Coefficient>


>  <cLogP>
1.29

>  <SMILES>
CO[C@H]1\C=C\O[C@@]2(C)OC3=C(C2=O)C4=C(O)\C(=C/NN5CCN(C)CC5)\C(=N\C(=O)\C(=C/C=C\[C@H](C)[C@H](O)[C@@H](C)[C@@H](O)[C@@H](C)[C@H](OC(=O)C)[C@@H]1C)\C)\C(=C4C(=C3C)O)O

$$$$
Compound 326
Actelion Java MolfileCreator 2.0

  0  0  0  0  0  0              0 V3000
M  V30 BEGIN CTAB
M  V30 COUNTS 24 27 0 0 0
M  V30 BEGIN ATOM
M  V30 1 Cl 3.4641 2.5 0.0 0
M  V30 2 C 3.4641 1.5 0.0 0
M  V30 3 C 2.598 1.0 0.0 0
M  V30 4 C 4.3301 1.0 0.0 0
M  V30 5 C 2.598 0.0 0.0 0
M  V30 6 C 4.3301 0.0 0.0 0
M  V30 7 C 3.4641 -0.4999 0.0 0
M  V30 8 C 1.732 -0.5 0.0 0
M  V30 9 O 0.866 0.0 0.0 0
M  V30 10 C 0.0 -0.5 0.0 0 CFG=2
M  V30 11 C -0.866 0.0 0.0 0 CFG=1
M  V30 12 C 0.0 -1.4999 0.0 0
M  V30 13 N -0.866 1.0 0.0 0
M  V30 14 C -1.732 -0.4999 0.0 0
M  V30 15 C -0.866 -1.9999 0.0 0
M  V30 16 N -0.057 1.5877 0.0 0
M  V30 17 C -1.675 1.5877 0.0 0
M  V30 18 C -1.732 -1.4999 0.0 0
M  V30 19 C -2.598 0.0 0.0 0
M  V30 20 N -0.366 2.5388 0.0 0
M  V30 21 C -1.366 2.5388 0.0 0
M  V30 22 C -2.598 -1.9999 0.0 0
M  V30 23 C -3.4641 -0.4999 0.0 0
M  V30 24 C -3.4641 -1.4999 0.0 0
M  V30 END ATOM
M  V30 BEGIN BOND
M  V30 1 1 1 2
M  V30 2 2 2 3
M  V30 3 1 2 4
M  V30 4 1 3 5
M  V30 5 2 4 6
M  V30 6 2 5 7
M  V30 7 1 5 8
M  V30 8 1 8 9
M  V30 9 1 10 9 CFG=1
M  V30 10 1 11 10
M  V30 11 1 10 12
M  V30 12 1 11 13 CFG=3
M  V30 13 1 11 14
M  V30 14 1 12 15
M  V30 15 1 13 16
M  V30 16 1 13 17
M  V30 17 2 14 18
M  V30 18 1 14 19
M  V30 19 2 16 20
M  V30 20 2 17 21
M  V30 21 1 18 22
M  V30 22 2 19 23
M  V30 23 2 22 24
M  V30 24 1 6 7
M  V30 25 1 15 18
M  V30 26 1 20 21
M  V30 27 1 23 24
M  V30 END BOND
M  V30 BEGIN COLLECTION
M  V30 MDLV30/STEABS ATOMS=(2 10 11)
M  V30 END COLLECTION
M  V30 END CTAB
M  END
>  <Rack>
PathogenBox_PlateE

>  <Position>
A07

>  <Compound ID>
MMV676159

>  <Disease Set>
KINETOPLASTIDS

>  <Trivial Name>


>  <Total Molecular Weight>
339.82

>  <Molecular Weight Parent Molecule>
339.82

>  <Molecular Formula>
C19H18N3OCl

>  <Salt Name>


>  <Salt Coefficient>


>  <cLogP>
3.71

>  <SMILES>
Clc1cccc(CO[C@H]2CCc3ccccc3[C@@H]2n4ccnn4)c1

$$$$
Compound 327
Actelion Java MolfileCreator 2.0

  0  0  0  0  0  0              0 V3000
M  V30 BEGIN CTAB
M  V30 COUNTS 23 26 0 0 0
M  V30 BEGIN ATOM
M  V30 1 F 2.598 3.75 0.0 0
M  V30 2 C 2.598 2.2499 0.0 0
M  V30 3 C 1.299 1.5 0.0 0
M  V30 4 C 3.8971 1.4999 0.0 0
M  V30 5 C 1.299 0.0 0.0 0
M  V30 6 C 3.8971 0.0 0.0 0
M  V30 7 C 0.0 -0.75 0.0 0
M  V30 8 C 2.598 -0.75 0.0 0
M  V30 9 N -1.3703 -0.1398 0.0 0
M  V30 10 C -0.1567 -2.2417 0.0 0
M  V30 11 C -2.374 -1.2546 0.0 0
M  V30 12 C -1.624 -2.5536 0.0 0
M  V30 13 C -3.874 -1.2546 0.0 0
M  V30 14 C -2.374 -3.8526 0.0 0
M  V30 15 C -4.624 -2.5536 0.0 0
M  V30 16 N -3.874 -3.8526 0.0 0
M  V30 17 N -1.624 -5.1517 0.0 0
M  V30 18 C -2.374 -6.4507 0.0 0
M  V30 19 C -0.124 -5.1517 0.0 0
M  V30 20 C -1.624 -7.7498 0.0 0
M  V30 21 C 0.6259 -6.4507 0.0 0
M  V30 22 N -0.124 -7.7498 0.0 0
M  V30 23 C 0.6259 -9.0488 0.0 0
M  V30 END ATOM
M  V30 BEGIN BOND
M  V30 1 1 1 2
M  V30 2 2 2 3
M  V30 3 1 2 4
M  V30 4 1 3 5
M  V30 5 2 4 6
M  V30 6 1 5 7
M  V30 7 2 5 8
M  V30 8 1 7 9
M  V30 9 2 7 10
M  V30 10 1 9 11
M  V30 11 1 10 12
M  V30 12 1 11 13
M  V30 13 1 12 14
M  V30 14 2 13 15
M  V30 15 2 14 16
M  V30 16 1 14 17
M  V30 17 1 17 18
M  V30 18 1 17 19
M  V30 19 1 18 20
M  V30 20 1 19 21
M  V30 21 1 20 22
M  V30 22 1 22 23
M  V30 23 1 6 8
M  V30 24 2 11 12
M  V30 25 1 15 16
M  V30 26 1 21 22
M  V30 END BOND
M  V30 END CTAB
M  END
>  <Rack>
PathogenBox_PlateE

>  <Position>
A08

>  <Compound ID>
MMV393144

>  <Disease Set>
MALARIA

>  <Trivial Name>


>  <Total Molecular Weight>
310.38

>  <Molecular Weight Parent Molecule>
310.38

>  <Molecular Formula>
C18H19N4F

>  <Salt Name>


>  <Salt Coefficient>


>  <cLogP>
2.68

>  <SMILES>
CN1CCN(CC1)c2nccc3[nH]c(cc23)c4cccc(F)c4

$$$$
Compound 328
Actelion Java MolfileCreator 2.0

  0  0  0  0  0  0              0 V3000
M  V30 BEGIN CTAB
M  V30 COUNTS 25 28 0 0 0
M  V30 BEGIN ATOM
M  V30 1 O 2.598 0.0 0.0 0
M  V30 2 C 1.732 -0.5 0.0 0
M  V30 3 N 0.866 0.0 0.0 0
M  V30 4 C 1.732 -1.5 0.0 0
M  V30 5 C 0.0 -0.5 0.0 0
M  V30 6 C 0.866 -1.9999 0.0 0
M  V30 7 C 2.598 -2.0 0.0 0
M  V30 8 C -0.866 0.0 0.0 0
M  V30 9 C 0.0 -1.4999 0.0 0
M  V30 10 C 0.866 -2.9999 0.0 0
M  V30 11 C 2.598 -3.0 0.0 0
M  V30 12 C -1.732 -0.4999 0.0 0
M  V30 13 C -0.866 -1.9999 0.0 0
M  V30 14 C 1.732 -3.5 0.0 0
M  V30 15 C -1.732 -1.4999 0.0 0
M  V30 16 N 1.732 -4.5 0.0 0
M  V30 17 C -2.598 -1.9999 0.0 0
M  V30 18 O -3.5116 -1.5932 0.0 0
M  V30 19 N -2.7026 -2.9945 0.0 0
M  V30 20 C -4.1807 -2.3364 0.0 0
M  V30 21 C -3.6807 -3.2024 0.0 0
M  V30 22 C -5.1807 -2.3364 0.0 0
M  V30 23 C -4.1807 -4.0684 0.0 0
M  V30 24 C -5.6807 -3.2024 0.0 0
M  V30 25 C -5.1807 -4.0684 0.0 0
M  V30 END ATOM
M  V30 BEGIN BOND
M  V30 1 2 1 2
M  V30 2 1 2 3
M  V30 3 1 2 4
M  V30 4 1 3 5
M  V30 5 2 4 6
M  V30 6 1 4 7
M  V30 7 2 5 8
M  V30 8 1 5 9
M  V30 9 1 6 10
M  V30 10 2 7 11
M  V30 11 1 8 12
M  V30 12 2 9 13
M  V30 13 2 10 14
M  V30 14 2 12 15
M  V30 15 1 14 16
M  V30 16 1 15 17
M  V30 17 1 17 18
M  V30 18 2 17 19
M  V30 19 1 18 20
M  V30 20 1 19 21
M  V30 21 1 20 22
M  V30 22 1 21 23
M  V30 23 2 22 24
M  V30 24 2 23 25
M  V30 25 1 11 14
M  V30 26 1 13 15
M  V30 27 2 20 21
M  V30 28 1 24 25
M  V30 END BOND
M  V30 END CTAB
M  END
>  <Rack>
PathogenBox_PlateE

>  <Position>
A09

>  <Compound ID>
MMV007920 

>  <Disease Set>
MALARIA

>  <Trivial Name>


>  <Total Molecular Weight>
329.35

>  <Molecular Weight Parent Molecule>
329.35

>  <Molecular Formula>
C20H15N3O2

>  <Salt Name>


>  <Salt Coefficient>


>  <cLogP>
3.78

>  <SMILES>
Nc1ccc(cc1)C(=O)Nc2ccc(cc2)c3oc4ccccc4n3

$$$$
Compound 329
Actelion Java MolfileCreator 2.0

  0  0  0  0  0  0              0 V3000
M  V30 BEGIN CTAB
M  V30 COUNTS 27 30 0 0 0
M  V30 BEGIN ATOM
M  V30 1 O 2.598 -0.75 0.0 0
M  V30 2 C 3.8971 0.0 0.0 0
M  V30 3 C 1.299 0.0 0.0 0
M  V30 4 C 5.1961 -0.7499 0.0 0
M  V30 5 C 3.8971 1.4999 0.0 0
M  V30 6 C 1.299 1.5 0.0 0
M  V30 7 C 0.0 -0.75 0.0 0
M  V30 8 C 6.4951 0.0 0.0 0
M  V30 9 C 5.1961 2.25 0.0 0
M  V30 10 C 7.7942 -0.7499 0.0 0
M  V30 11 C 6.4951 1.5 0.0 0
M  V30 12 N 7.7942 -2.2499 0.0 0
M  V30 13 C 9.0932 0.0 0.0 0
M  V30 14 C 9.0932 -2.9999 0.0 0
M  V30 15 N 10.3923 -0.7499 0.0 0
M  V30 16 C 10.3923 -2.2499 0.0 0
M  V30 17 C 11.8188 -0.2864 0.0 0
M  V30 18 N 11.8188 -2.7135 0.0 0
M  V30 19 C 12.2824 1.1401 0.0 0
M  V30 20 C 12.7005 -1.4999 0.0 0
M  V30 21 C 13.7496 1.4519 0.0 0
M  V30 22 C 11.2787 2.2548 0.0 0
M  V30 23 C 14.2131 2.8785 0.0 0
M  V30 24 C 11.7422 3.6814 0.0 0
M  V30 25 C 13.2094 3.9932 0.0 0
M  V30 26 O 13.6729 5.4198 0.0 0
M  V30 27 C 12.6692 6.5345 0.0 0
M  V30 END ATOM
M  V30 BEGIN BOND
M  V30 1 1 1 2
M  V30 2 1 1 3
M  V30 3 2 2 4
M  V30 4 1 2 5
M  V30 5 1 3 6
M  V30 6 1 3 7
M  V30 7 1 4 8
M  V30 8 2 5 9
M  V30 9 1 8 10
M  V30 10 2 8 11
M  V30 11 1 10 12
M  V30 12 2 10 13
M  V30 13 2 12 14
M  V30 14 1 13 15
M  V30 15 1 14 16
M  V30 16 1 15 17
M  V30 17 2 16 18
M  V30 18 1 17 19
M  V30 19 2 17 20
M  V30 20 2 19 21
M  V30 21 1 19 22
M  V30 22 1 21 23
M  V30 23 2 22 24
M  V30 24 2 23 25
M  V30 25 1 25 26
M  V30 26 1 26 27
M  V30 27 1 9 11
M  V30 28 1 15 16
M  V30 29 1 18 20
M  V30 30 1 24 25
M  V30 END BOND
M  V30 END CTAB
M  END
>  <Rack>
PathogenBox_PlateE

>  <Position>
A10

>  <Compound ID>
MMV688270

>  <Disease Set>
SCHISTOSOMIASIS

>  <Trivial Name>


>  <Total Molecular Weight>
359.42

>  <Molecular Weight Parent Molecule>
359.42

>  <Molecular Formula>
C22H21N3O2

>  <Salt Name>


>  <Salt Coefficient>


>  <cLogP>
3.73

>  <SMILES>
COc1ccc(cc1)-c1cnc2cnc(cn12)-c1cccc(OC(C)C)c1

$$$$
Compound 330
Actelion Java MolfileCreator 2.0

  0  0  0  0  0  0              0 V3000
M  V30 BEGIN CTAB
M  V30 COUNTS 26 28 0 0 0
M  V30 BEGIN ATOM
M  V30 1 F 2.4641 5.5 0.0 0
M  V30 2 C 3.4641 5.5 0.0 0
M  V30 3 F 3.4641 6.5 0.0 0
M  V30 4 F 4.4641 5.5 0.0 0
M  V30 5 C 3.4641 4.5 0.0 0
M  V30 6 C 2.598 4.0 0.0 0
M  V30 7 C 4.3301 4.0 0.0 0
M  V30 8 C 2.598 3.0 0.0 0
M  V30 9 C 4.3301 3.0 0.0 0
M  V30 10 C 3.4641 2.5 0.0 0
M  V30 11 C 3.4641 1.5 0.0 0
M  V30 12 N 2.598 1.0 0.0 0
M  V30 13 C 4.3301 1.0 0.0 0
M  V30 14 C 2.598 0.0 0.0 0
M  V30 15 N 4.3301 0.0 0.0 0
M  V30 16 N 3.4641 -0.4999 0.0 0
M  V30 17 N 1.732 -0.5 0.0 0
M  V30 18 C 1.732 -1.5 0.0 0 CFG=2
M  V30 19 C 2.598 -2.0 0.0 0
M  V30 20 C 0.866 -2.0 0.0 0
M  V30 21 C 2.7026 -2.9945 0.0 0
M  V30 22 C 3.5116 -1.5932 0.0 0
M  V30 23 N 3.6807 -3.2024 0.0 0
M  V30 24 C 1.9594 -3.6636 0.0 0
M  V30 25 N 4.1807 -2.3364 0.0 0
M  V30 26 C 5.1752 -2.2318 0.0 0
M  V30 END ATOM
M  V30 BEGIN BOND
M  V30 1 1 1 2
M  V30 2 1 2 3
M  V30 3 1 2 4
M  V30 4 1 2 5
M  V30 5 2 5 6
M  V30 6 1 5 7
M  V30 7 1 6 8
M  V30 8 2 7 9
M  V30 9 2 8 10
M  V30 10 1 10 11
M  V30 11 2 11 12
M  V30 12 1 11 13
M  V30 13 1 12 14
M  V30 14 2 13 15
M  V30 15 2 14 16
M  V30 16 1 14 17
M  V30 17 1 18 17 CFG=3
M  V30 18 1 18 19
M  V30 19 1 18 20
M  V30 20 1 19 21
M  V30 21 2 19 22
M  V30 22 2 21 23
M  V30 23 1 21 24
M  V30 24 1 22 25
M  V30 25 1 25 26
M  V30 26 1 9 10
M  V30 27 1 15 16
M  V30 28 1 23 25
M  V30 END BOND
M  V30 BEGIN COLLECTION
M  V30 MDLV30/STERAC1 ATOMS=(1 18)
M  V30 END COLLECTION
M  V30 END CTAB
M  END
>  <Rack>
PathogenBox_PlateE

>  <Position>
A11

>  <Compound ID>
MMV019993

>  <Disease Set>
MALARIA

>  <Trivial Name>


>  <Total Molecular Weight>
362.36

>  <Molecular Weight Parent Molecule>
362.36

>  <Molecular Formula>
C17H17N6F3

>  <Salt Name>


>  <Salt Coefficient>


>  <cLogP>
2.05

>  <SMILES>
CC(Nc1nncc(n1)c2ccc(cc2)C(F)(F)F)c3cn(C)nc3C

$$$$
Compound 331
Actelion Java MolfileCreator 2.0

  0  0  0  0  0  0              0 V3000
M  V30 BEGIN CTAB
M  V30 COUNTS 22 25 0 0 0
M  V30 BEGIN ATOM
M  V30 1 Br 1.299 0.0 0.0 0
M  V30 2 C 0.0 -0.75 0.0 0
M  V30 3 N -1.3703 -0.1398 0.0 0
M  V30 4 C -0.1567 -2.2417 0.0 0
M  V30 5 S -2.374 -1.2546 0.0 0
M  V30 6 C 0.8469 -3.3565 0.0 0
M  V30 7 C -1.624 -2.5536 0.0 0
M  V30 8 C 0.3833 -4.783 0.0 0
M  V30 9 C 2.3141 -3.0446 0.0 0
M  V30 10 N -2.0875 -3.9802 0.0 0
M  V30 11 C -1.0838 -5.0949 0.0 0
M  V30 12 C 1.387 -5.8978 0.0 0
M  V30 13 C 3.3178 -4.1593 0.0 0
M  V30 14 N -1.5473 -6.5215 0.0 0
M  V30 15 O 2.8543 -5.5859 0.0 0
M  V30 16 C 4.7443 -4.6228 0.0 0
M  V30 17 C 4.4325 -3.1556 0.0 0
M  V30 18 C -3.0145 -6.8334 0.0 0
M  V30 19 C -0.5436 -7.6362 0.0 0
M  V30 20 C -3.4781 -8.26 0.0 0
M  V30 21 C -1.0072 -9.0628 0.0 0
M  V30 22 O -2.4744 -9.3747 0.0 0
M  V30 END ATOM
M  V30 BEGIN BOND
M  V30 1 1 1 2
M  V30 2 2 2 3
M  V30 3 1 2 4
M  V30 4 1 3 5
M  V30 5 2 4 6
M  V30 6 1 4 7
M  V30 7 1 6 8
M  V30 8 1 6 9
M  V30 9 2 7 10
M  V30 10 2 8 11
M  V30 11 1 8 12
M  V30 12 1 9 13
M  V30 13 1 11 14
M  V30 14 1 12 15
M  V30 15 1 13 16
M  V30 16 1 13 17
M  V30 17 1 14 18
M  V30 18 1 14 19
M  V30 19 1 18 20
M  V30 20 1 19 21
M  V30 21 1 20 22
M  V30 22 1 5 7
M  V30 23 1 10 11
M  V30 24 1 13 15
M  V30 25 1 21 22
M  V30 END BOND
M  V30 END CTAB
M  END
>  <Rack>
PathogenBox_PlateE

>  <Position>
B02

>  <Compound ID>
MMV687794

>  <Disease Set>
MALARIA

>  <Trivial Name>


>  <Total Molecular Weight>
384.29

>  <Molecular Weight Parent Molecule>
384.29

>  <Molecular Formula>
C15H18N3O2BrS

>  <Salt Name>


>  <Salt Coefficient>


>  <cLogP>
2.26

>  <SMILES>
CC1(C)Cc2c(CO1)c(nc3snc(Br)c23)N4CCOCC4

$$$$
Compound 332
Actelion Java MolfileCreator 2.0

  0  0  0  0  0  0              0 V3000
M  V30 BEGIN CTAB
M  V30 COUNTS 22 23 0 0 0
M  V30 BEGIN ATOM
M  V30 1 O 2.598 1.0 0.0 0
M  V30 2 C 2.598 0.0 0.0 0
M  V30 3 N 3.4641 -0.5 0.0 0
M  V30 4 C 1.732 -0.5 0.0 0
M  V30 5 C 4.3301 0.0 0.0 0
M  V30 6 O 0.866 0.0 0.0 0
M  V30 7 C 5.1961 -0.4999 0.0 0
M  V30 8 C 4.3301 0.9999 0.0 0
M  V30 9 C 0.0 -0.5 0.0 0
M  V30 10 C 6.0621 0.0 0.0 0
M  V30 11 C 5.1961 1.4999 0.0 0
M  V30 12 C -0.866 0.0 0.0 0
M  V30 13 C 0.0 -1.4999 0.0 0
M  V30 14 C 6.0621 1.0 0.0 0
M  V30 15 C 6.9282 -0.5 0.0 0
M  V30 16 C 5.1961 2.4999 0.0 0
M  V30 17 C -1.732 -0.4999 0.0 0
M  V30 18 C -0.866 -1.9999 0.0 0
M  V30 19 C -1.732 -1.4999 0.0 0
M  V30 20 O -2.598 -1.9999 0.0 0
M  V30 21 C -3.4641 -1.4999 0.0 0
M  V30 22 C -4.3301 -1.9999 0.0 0
M  V30 END ATOM
M  V30 BEGIN BOND
M  V30 1 2 1 2
M  V30 2 1 2 3
M  V30 3 1 2 4
M  V30 4 1 3 5
M  V30 5 1 4 6
M  V30 6 2 5 7
M  V30 7 1 5 8
M  V30 8 1 6 9
M  V30 9 1 7 10
M  V30 10 2 8 11
M  V30 11 2 9 12
M  V30 12 1 9 13
M  V30 13 2 10 14
M  V30 14 1 10 15
M  V30 15 1 11 16
M  V30 16 1 12 17
M  V30 17 2 13 18
M  V30 18 2 17 19
M  V30 19 1 19 20
M  V30 20 1 20 21
M  V30 21 1 21 22
M  V30 22 1 11 14
M  V30 23 1 18 19
M  V30 END BOND
M  V30 END CTAB
M  END
>  <Rack>
PathogenBox_PlateE

>  <Position>
B03

>  <Compound ID>
MMV676470

>  <Disease Set>
TUBERCULOSIS

>  <Trivial Name>


>  <Total Molecular Weight>
299.36

>  <Molecular Weight Parent Molecule>
299.36

>  <Molecular Formula>
C18H21NO3

>  <Salt Name>


>  <Salt Coefficient>


>  <cLogP>
3.41

>  <SMILES>
CCOc1ccc(OCC(=O)Nc2cc(C)cc(C)c2)cc1

$$$$
Compound 333
Actelion Java MolfileCreator 2.0

  0  0  0  0  0  0              0 V3000
M  V30 BEGIN CTAB
M  V30 COUNTS 25 27 0 0 0
M  V30 BEGIN ATOM
M  V30 1 S 8.8692 0.5046 0.0 0
M  V30 2 C 8.1192 1.8036 0.0 0
M  V30 3 C 7.8655 -0.6101 0.0 0
M  V30 4 N 6.6519 1.4917 0.0 0
M  V30 5 C 8.7293 3.1739 0.0 0
M  V30 6 C 6.4951 0.0 0.0 0
M  V30 7 C 10.221 3.3307 0.0 0
M  V30 8 C 7.8476 4.3874 0.0 0
M  V30 9 C 5.1961 -0.75 0.0 0
M  V30 10 C 10.8311 4.701 0.0 0
M  V30 11 C 8.4577 5.7578 0.0 0
M  V30 12 N 3.8971 0.0 0.0 0
M  V30 13 C 9.9495 5.9146 0.0 0
M  V30 14 C 2.598 -0.75 0.0 0
M  V30 15 O 10.5596 7.2849 0.0 0
M  V30 16 C 1.299 0.0 0.0 0
M  V30 17 C 12.0514 7.4417 0.0 0
M  V30 18 C 0.0 -0.75 0.0 0
M  V30 19 C 12.6615 8.812 0.0 0
M  V30 20 C -1.299 0.0 0.0 0
M  V30 21 C 0.0 -2.2499 0.0 0
M  V30 22 C -2.598 -0.7499 0.0 0
M  V30 23 C -1.299 -2.9999 0.0 0
M  V30 24 C -2.598 -2.2499 0.0 0
M  V30 25 F -3.8971 -2.9999 0.0 0
M  V30 END ATOM
M  V30 BEGIN BOND
M  V30 1 1 1 2
M  V30 2 1 1 3
M  V30 3 2 2 4
M  V30 4 1 2 5
M  V30 5 2 3 6
M  V30 6 2 5 7
M  V30 7 1 5 8
M  V30 8 1 6 9
M  V30 9 1 7 10
M  V30 10 2 8 11
M  V30 11 1 9 12
M  V30 12 2 10 13
M  V30 13 1 12 14
M  V30 14 1 13 15
M  V30 15 1 14 16
M  V30 16 1 15 17
M  V30 17 1 16 18
M  V30 18 1 17 19
M  V30 19 2 18 20
M  V30 20 1 18 21
M  V30 21 1 20 22
M  V30 22 2 21 23
M  V30 23 2 22 24
M  V30 24 1 24 25
M  V30 25 1 4 6
M  V30 26 1 11 13
M  V30 27 1 23 24
M  V30 END BOND
M  V30 END CTAB
M  END
>  <Rack>
PathogenBox_PlateE

>  <Position>
B04

>  <Compound ID>
MMV688938

>  <Disease Set>
TUBERCULOSIS

>  <Trivial Name>


>  <Total Molecular Weight>
356.46

>  <Molecular Weight Parent Molecule>
356.46

>  <Molecular Formula>
C20H21N2OFS

>  <Salt Name>


>  <Salt Coefficient>


>  <cLogP>
4.01

>  <SMILES>
CCOc1ccc(cc1)c2nc(CNCCc3ccc(F)cc3)cs2

$$$$
Compound 334
Actelion Java MolfileCreator 2.0

  0  0  0  0  0  0              0 V3000
M  V30 BEGIN CTAB
M  V30 COUNTS 65 67 0 0 0
M  V30 BEGIN ATOM
M  V30 1 O 14.4239 -0.1314 0.0 0
M  V30 2 C 13.4842 0.2105 0.0 0
M  V30 3 O 13.743 1.1765 0.0 0
M  V30 4 C 13.0616 -0.6957 0.0 0
M  V30 5 C 13.8302 2.1727 0.0 0 CFG=1
M  V30 6 C 12.488 -1.5148 0.0 0 CFG=2
M  V30 7 C 13.743 3.1689 0.0 0 CFG=1
M  V30 8 C 14.8302 2.1727 0.0 0
M  V30 9 O 13.2541 -2.1576 0.0 0
M  V30 10 C 11.7809 -2.2219 0.0 0
M  V30 11 C 13.4842 4.1348 0.0 0 CFG=2
M  V30 12 C 14.7278 3.3425 0.0 0
M  V30 13 C 10.9617 -2.7955 0.0 0 CFG=1
M  V30 14 O 14.4239 4.4768 0.0 0
M  V30 15 C 13.0616 5.0411 0.0 0 CFG=2
M  V30 16 O 11.4617 -3.6615 0.0 0
M  V30 17 C 10.0554 -3.2181 0.0 0
M  V30 18 C 12.488 5.8602 0.0 0
M  V30 19 C 13.9276 5.5411 0.0 0
M  V30 20 C 9.0895 -3.4769 0.0 0
M  V30 21 C 11.7809 6.5673 0.0 0
M  V30 22 C 8.0933 -3.5641 0.0 0 CFG=1
M  V30 23 C 10.9617 7.1409 0.0 0
M  V30 24 O 8.0933 -4.5641 0.0 0
M  V30 25 C 7.0971 -3.4769 0.0 0 CFG=2
M  V30 26 C 10.0554 7.5635 0.0 0
M  V30 27 O 6.9235 -4.4617 0.0 0
M  V30 28 C 6.1312 -3.2181 0.0 0
M  V30 29 C 9.0895 7.8224 0.0 0
M  V30 30 C 5.2249 -2.7955 0.0 0 CFG=2
M  V30 31 C 8.0933 7.9095 0.0 0
M  V30 32 O 4.7249 -3.6615 0.0 0
M  V30 33 C 4.4057 -2.2219 0.0 0
M  V30 34 C 7.0971 7.8224 0.0 0
M  V30 35 C 3.4641 -1.4999 0.0 0 CFG=2
M  V30 36 C 6.1312 7.5635 0.0 0
M  V30 37 O 3.4641 -0.5 0.0 0
M  V30 38 O 3.3989 -2.4978 0.0 0
M  V30 39 C 2.598 -1.9999 0.0 0
M  V30 40 C 5.2249 7.1409 0.0 0
M  V30 41 C 2.598 0.0 0.0 0 CFG=2
M  V30 42 C 1.732 -1.5 0.0 0 CFG=1
M  V30 43 C 4.4057 6.5673 0.0 0
M  V30 44 C 1.732 -0.5 0.0 0 CFG=1
M  V30 45 C 2.4436 1.1765 0.0 0
M  V30 46 O 0.866 -1.9999 0.0 0
M  V30 47 C 3.6986 5.8602 0.0 0
M  V30 48 C 0.866 0.0 0.0 0
M  V30 49 C 2.3565 2.1727 0.0 0 CFG=2
M  V30 50 C 3.1251 5.0411 0.0 0
M  V30 51 O 0.866 1.0 0.0 0
M  V30 52 O 0.0 -0.5 0.0 0
M  V30 53 O 1.3565 2.1727 0.0 0
M  V30 54 C 2.4436 3.1689 0.0 0
M  V30 55 C 2.7024 4.1348 0.0 0
M  V30 56 C 0.8565 3.0387 0.0 0 CFG=2
M  V30 57 O 1.3565 3.9047 0.0 0
M  V30 58 C -0.1434 3.0387 0.0 0 CFG=1
M  V30 59 C 0.8565 4.7707 0.0 0 CFG=1
M  V30 60 O -0.6434 2.1727 0.0 0
M  V30 61 C -0.6434 3.9047 0.0 0 CFG=2
M  V30 62 C -0.1434 4.7707 0.0 0 CFG=2
M  V30 63 C 1.3565 5.6368 0.0 0
M  V30 64 N -1.6434 3.9047 0.0 0
M  V30 65 O -0.6434 5.6368 0.0 0
M  V30 END ATOM
M  V30 BEGIN BOND
M  V30 1 2 1 2
M  V30 2 1 2 3
M  V30 3 1 2 4
M  V30 4 1 5 3
M  V30 5 1 6 4
M  V30 6 1 7 5
M  V30 7 1 5 8 CFG=3
M  V30 8 1 6 9 CFG=3
M  V30 9 1 6 10
M  V30 10 1 11 7
M  V30 11 1 7 12 CFG=1
M  V30 12 1 13 10
M  V30 13 1 11 14 CFG=1
M  V30 14 1 15 11
M  V30 15 1 13 16 CFG=1
M  V30 16 1 13 17
M  V30 17 1 15 18
M  V30 18 1 15 19 CFG=3
M  V30 19 1 17 20
M  V30 20 2 18 21
M  V30 21 1 22 20
M  V30 22 1 21 23
M  V30 23 1 22 24 CFG=1
M  V30 24 1 25 22
M  V30 25 2 23 26
M  V30 26 1 25 27 CFG=3
M  V30 27 1 25 28
M  V30 28 1 26 29
M  V30 29 1 30 28
M  V30 30 2 29 31
M  V30 31 1 30 32 CFG=3
M  V30 32 1 30 33
M  V30 33 1 31 34
M  V30 34 1 35 33
M  V30 35 2 34 36
M  V30 36 1 35 37
M  V30 37 1 35 38 CFG=1
M  V30 38 1 35 39
M  V30 39 1 36 40
M  V30 40 1 41 37 CFG=3
M  V30 41 1 42 39
M  V30 42 2 40 43
M  V30 43 1 44 41
M  V30 44 1 41 45
M  V30 45 1 42 46 CFG=3
M  V30 46 1 43 47
M  V30 47 1 44 48 CFG=1
M  V30 48 1 49 45
M  V30 49 2 47 50
M  V30 50 2 48 51
M  V30 51 1 48 52
M  V30 52 1 49 53 CFG=1
M  V30 53 1 49 54
M  V30 54 1 50 55
M  V30 55 1 56 53 CFG=1
M  V30 56 1 56 57
M  V30 57 1 58 56
M  V30 58 1 59 57
M  V30 59 1 58 60 CFG=1
M  V30 60 1 61 58
M  V30 61 1 62 59
M  V30 62 1 59 63 CFG=1
M  V30 63 1 61 64 CFG=1
M  V30 64 1 62 65 CFG=3
M  V30 65 1 42 44
M  V30 66 2 54 55
M  V30 67 1 61 62
M  V30 END BOND
M  V30 BEGIN COLLECTION
M  V30 MDLV30/STEABS ATOMS=(19 5 6 7 11 13 15 22 25 30 35 41 42 44 49 56 58 59 61 62)
M  V30 END COLLECTION
M  V30 END CTAB
M  END
>  <Rack>
PathogenBox_PlateE

>  <Position>
B05

>  <Compound ID>
MMV689000

>  <Disease Set>
REFERENCE COMPOUNDS

>  <Trivial Name>
Amphotericin B

>  <Total Molecular Weight>
924.08

>  <Molecular Weight Parent Molecule>
924.08

>  <Molecular Formula>
C47H73NO17

>  <Salt Name>


>  <Salt Coefficient>


>  <cLogP>
0.32

>  <SMILES>
C[C@@H]1OC(=O)C[C@H](O)C[C@H](O)CC[C@@H](O)[C@H](O)C[C@H](O)C[C@]2(O)C[C@H](O)[C@H]([C@H](C[C@@H](O[C@@H]3O[C@H](C)[C@@H](O)[C@H](N)[C@@H]3O)\C=C\C=C\C=C\C=C\C=C\C=C\C=C\[C@H](C)[C@@H](O)[C@H]1C)O2)C(=O)O

$$$$
Compound 335
Actelion Java MolfileCreator 2.0

  0  0  0  0  0  0              0 V3000
M  V30 BEGIN CTAB
M  V30 COUNTS 22 24 0 0 0
M  V30 BEGIN ATOM
M  V30 1 Cl 4.3301 -1.9999 0.0 0
M  V30 2 C 3.4641 -1.4999 0.0 0
M  V30 3 C 3.4641 -0.5 0.0 0
M  V30 4 C 2.598 -1.9999 0.0 0
M  V30 5 C 2.598 0.0 0.0 0
M  V30 6 C 1.732 -1.5 0.0 0
M  V30 7 C 1.732 -0.5 0.0 0
M  V30 8 C 0.866 0.0 0.0 0 CFG=1
M  V30 9 N 0.866 1.0 0.0 0
M  V30 10 C 0.0 -0.5 0.0 0
M  V30 11 C 1.7669 1.4338 0.0 0
M  V30 12 C -0.0349 1.4338 0.0 0
M  V30 13 C -0.866 0.0 0.0 0
M  V30 14 C 0.0 -1.4999 0.0 0
M  V30 15 C 1.9895 2.4088 0.0 0
M  V30 16 C -0.2574 2.4088 0.0 0
M  V30 17 C -1.732 -0.4999 0.0 0
M  V30 18 C -0.866 -1.9999 0.0 0
M  V30 19 N 1.366 3.1906 0.0 0
M  V30 20 C 0.366 3.1906 0.0 0
M  V30 21 C -1.732 -1.4999 0.0 0
M  V30 22 C 1.7999 4.0916 0.0 0
M  V30 END ATOM
M  V30 BEGIN BOND
M  V30 1 1 1 2
M  V30 2 2 2 3
M  V30 3 1 2 4
M  V30 4 1 3 5
M  V30 5 2 4 6
M  V30 6 2 5 7
M  V30 7 1 8 7
M  V30 8 1 8 9 CFG=3
M  V30 9 1 8 10
M  V30 10 1 9 11
M  V30 11 1 9 12
M  V30 12 2 10 13
M  V30 13 1 10 14
M  V30 14 1 11 15
M  V30 15 1 12 16
M  V30 16 1 13 17
M  V30 17 2 14 18
M  V30 18 1 15 19
M  V30 19 1 16 20
M  V30 20 2 17 21
M  V30 21 1 19 22
M  V30 22 1 6 7
M  V30 23 1 18 21
M  V30 24 1 19 20
M  V30 END BOND
M  V30 BEGIN COLLECTION
M  V30 MDLV30/STERAC1 ATOMS=(1 8)
M  V30 END COLLECTION
M  V30 END CTAB
M  END
>  <Rack>
PathogenBox_PlateE

>  <Position>
B06

>  <Compound ID>
MMV004168

>  <Disease Set>
KINETOPLASTIDS

>  <Trivial Name>


>  <Total Molecular Weight>
314.86

>  <Molecular Weight Parent Molecule>
314.86

>  <Molecular Formula>
C19H23N2Cl

>  <Salt Name>


>  <Salt Coefficient>


>  <cLogP>
4.02

>  <SMILES>
CN1CCCN(CC1)C(c2ccccc2)c3ccc(Cl)cc3

$$$$
Compound 336
Actelion Java MolfileCreator 2.0

  0  0  0  0  0  0              0 V3000
M  V30 BEGIN CTAB
M  V30 COUNTS 25 28 0 0 0
M  V30 BEGIN ATOM
M  V30 1 O 3.4641 -1.4999 0.0 0
M  V30 2 C 3.4641 -0.5 0.0 0
M  V30 3 C 2.598 -1.9999 0.0 0
M  V30 4 C 2.598 0.0 0.0 0
M  V30 5 C 1.732 -1.5 0.0 0
M  V30 6 N 1.732 -0.5 0.0 0
M  V30 7 C 0.866 0.0 0.0 0
M  V30 8 C 0.0 -0.5 0.0 0
M  V30 9 N -0.9135 -0.0932 0.0 0
M  V30 10 C -0.1045 -1.4945 0.0 0
M  V30 11 N -1.5826 -0.8364 0.0 0
M  V30 12 C -1.0826 -1.7024 0.0 0
M  V30 13 C -1.4894 -2.6159 0.0 0
M  V30 14 C -2.4839 -2.7205 0.0 0
M  V30 15 C -0.9016 -3.4249 0.0 0
M  V30 16 C -2.8906 -3.634 0.0 0
M  V30 17 C -1.3083 -4.3385 0.0 0
M  V30 18 C -2.3028 -4.443 0.0 0
M  V30 19 O -2.7096 -5.3566 0.0 0
M  V30 20 C -2.1218 -6.1656 0.0 0
M  V30 21 C -2.5285 -7.0791 0.0 0
M  V30 22 C -1.1273 -6.0611 0.0 0
M  V30 23 C -1.9407 -7.8881 0.0 0
M  V30 24 C -0.5395 -6.8701 0.0 0
M  V30 25 C -0.9462 -7.7836 0.0 0
M  V30 END ATOM
M  V30 BEGIN BOND
M  V30 1 1 1 2
M  V30 2 1 1 3
M  V30 3 1 2 4
M  V30 4 1 3 5
M  V30 5 1 4 6
M  V30 6 1 6 7
M  V30 7 1 7 8
M  V30 8 1 8 9
M  V30 9 2 8 10
M  V30 10 1 9 11
M  V30 11 1 10 12
M  V30 12 1 12 13
M  V30 13 2 13 14
M  V30 14 1 13 15
M  V30 15 1 14 16
M  V30 16 2 15 17
M  V30 17 2 16 18
M  V30 18 1 18 19
M  V30 19 1 19 20
M  V30 20 2 20 21
M  V30 21 1 20 22
M  V30 22 1 21 23
M  V30 23 2 22 24
M  V30 24 2 23 25
M  V30 25 1 5 6
M  V30 26 2 11 12
M  V30 27 1 17 18
M  V30 28 1 24 25
M  V30 END BOND
M  V30 END CTAB
M  END
>  <Rack>
PathogenBox_PlateE

>  <Position>
B07

>  <Compound ID>
MMV676161

>  <Disease Set>
KINETOPLASTIDS

>  <Trivial Name>


>  <Total Molecular Weight>
335.40

>  <Molecular Weight Parent Molecule>
335.40

>  <Molecular Formula>
C20H21N3O2

>  <Salt Name>


>  <Salt Coefficient>


>  <cLogP>
2.34

>  <SMILES>
C(N1CCOCC1)c2cc(n[nH]2)c3ccc(Oc4ccccc4)cc3

$$$$
Compound 337
Actelion Java MolfileCreator 2.0

  0  0  0  0  0  0              0 V3000
M  V30 BEGIN CTAB
M  V30 COUNTS 30 35 0 0 0
M  V30 BEGIN ATOM
M  V30 1 O 6.4355 -1.405 0.0 0
M  V30 2 C 7.8688 -1.8471 0.0 0
M  V30 3 C 5.1961 -2.25 0.0 0
M  V30 4 C 8.4168 -3.2434 0.0 0
M  V30 5 C 8.8041 -0.6744 0.0 0
M  V30 6 C 5.084 -3.7458 0.0 0
M  V30 7 C 5.1961 -0.75 0.0 0
M  V30 8 C 3.8971 -2.9999 0.0 0
M  V30 9 C 9.9001 -3.467 0.0 0
M  V30 10 C 7.6668 -4.5425 0.0 0
M  V30 11 C 10.2873 -0.8979 0.0 0
M  V30 12 N 6.1836 -4.766 0.0 0
M  V30 13 C 3.8971 0.0 0.0 0
M  V30 14 C 2.598 -2.2499 0.0 0
M  V30 15 C 10.8353 -2.2942 0.0 0
M  V30 16 C 5.7415 -6.1994 0.0 0
M  V30 17 N 2.598 -0.75 0.0 0
M  V30 18 C 6.7617 -7.299 0.0 0
M  V30 19 C 1.299 0.0 0.0 0
M  V30 20 C 7.0955 -8.7613 0.0 0
M  V30 21 C 8.1951 -7.7411 0.0 0
M  V30 22 C 0.0 -0.75 0.0 0
M  V30 23 C -1.3703 -0.1398 0.0 0
M  V30 24 C -0.1567 -2.2417 0.0 0
M  V30 25 C -2.374 -1.2546 0.0 0
M  V30 26 C -1.8338 1.2866 0.0 0
M  V30 27 N -1.624 -2.5536 0.0 0
M  V30 28 C -3.8412 -0.9427 0.0 0
M  V30 29 C -3.301 1.5985 0.0 0
M  V30 30 N -4.3047 0.4838 0.0 0
M  V30 END ATOM
M  V30 BEGIN BOND
M  V30 1 1 1 2
M  V30 2 1 1 3
M  V30 3 2 2 4
M  V30 4 1 2 5
M  V30 5 1 3 6
M  V30 6 1 3 7
M  V30 7 1 3 8
M  V30 8 1 4 9
M  V30 9 1 4 10
M  V30 10 2 5 11
M  V30 11 1 6 12
M  V30 12 1 7 13
M  V30 13 1 8 14
M  V30 14 2 9 15
M  V30 15 1 12 16
M  V30 16 1 13 17
M  V30 17 1 16 18
M  V30 18 1 17 19
M  V30 19 1 18 20
M  V30 20 1 18 21
M  V30 21 1 19 22
M  V30 22 1 22 23
M  V30 23 2 22 24
M  V30 24 2 23 25
M  V30 25 1 23 26
M  V30 26 1 24 27
M  V30 27 1 25 28
M  V30 28 2 26 29
M  V30 29 2 28 30
M  V30 30 1 10 12
M  V30 31 1 11 15
M  V30 32 1 14 17
M  V30 33 1 20 21
M  V30 34 1 25 27
M  V30 35 1 29 30
M  V30 END BOND
M  V30 END CTAB
M  END
>  <Rack>
PathogenBox_PlateE

>  <Position>
B08

>  <Compound ID>
MMV023183

>  <Disease Set>
MALARIA

>  <Trivial Name>


>  <Total Molecular Weight>
402.54

>  <Molecular Weight Parent Molecule>
402.54

>  <Molecular Formula>
C25H30N4O

>  <Salt Name>


>  <Salt Coefficient>


>  <cLogP>
2.61

>  <SMILES>
C(C1CC1)N2Cc3ccccc3OC4(CCN(Cc5c[nH]c6cnccc56)CC4)C2

$$$$
Compound 338
Actelion Java MolfileCreator 2.0

  0  0  0  0  0  0              0 V3000
M  V30 BEGIN CTAB
M  V30 COUNTS 18 19 0 0 0
M  V30 BEGIN ATOM
M  V30 1 F 3.598 -2.9999 0.0 0
M  V30 2 C 2.598 -3.0 0.0 0
M  V30 3 F 2.598 -4.0 0.0 0
M  V30 4 F 1.598 -3.0 0.0 0
M  V30 5 C 2.598 -1.9999 0.0 0
M  V30 6 N 3.4641 -1.5 0.0 0
M  V30 7 C 1.732 -1.5 0.0 0
M  V30 8 C 3.4641 -0.5 0.0 0
M  V30 9 C 1.732 -0.5 0.0 0
M  V30 10 C 2.598 0.0 0.0 0
M  V30 11 C 4.3301 0.0 0.0 0
M  V30 12 O 0.866 0.0 0.0 0
M  V30 13 C 2.598 1.0 0.0 0
M  V30 14 C 4.3301 0.9999 0.0 0
M  V30 15 C 0.0 -0.5 0.0 0
M  V30 16 N 1.732 1.5 0.0 0
M  V30 17 C 3.4641 1.4999 0.0 0
M  V30 18 C 3.4641 2.5 0.0 0
M  V30 END ATOM
M  V30 BEGIN BOND
M  V30 1 1 1 2
M  V30 2 1 2 3
M  V30 3 1 2 4
M  V30 4 1 2 5
M  V30 5 2 5 6
M  V30 6 1 5 7
M  V30 7 1 6 8
M  V30 8 2 7 9
M  V30 9 1 8 10
M  V30 10 2 8 11
M  V30 11 1 9 12
M  V30 12 2 10 13
M  V30 13 1 11 14
M  V30 14 1 12 15
M  V30 15 1 13 16
M  V30 16 1 13 17
M  V30 17 1 17 18
M  V30 18 1 9 10
M  V30 19 2 14 17
M  V30 END BOND
M  V30 END CTAB
M  END
>  <Rack>
PathogenBox_PlateE

>  <Position>
B09

>  <Compound ID>
MMV047015

>  <Disease Set>
TUBERCULOSIS

>  <Trivial Name>


>  <Total Molecular Weight>
256.23

>  <Molecular Weight Parent Molecule>
256.23

>  <Molecular Formula>
C12H11N2OF3

>  <Salt Name>


>  <Salt Coefficient>


>  <cLogP>
2.47

>  <SMILES>
COc1cc(nc2ccc(C)c(N)c12)C(F)(F)F

$$$$
Compound 339
Actelion Java MolfileCreator 2.0

  0  0  0  0  0  0              0 V3000
M  V30 BEGIN CTAB
M  V30 COUNTS 22 24 0 0 0
M  V30 BEGIN ATOM
M  V30 1 O 4.3301 0.0 0.0 0
M  V30 2 C 3.4641 -0.5 0.0 0
M  V30 3 N 2.598 0.0 0.0 0
M  V30 4 C 3.4641 -1.5 0.0 0
M  V30 5 C 1.732 -0.5 0.0 0
M  V30 6 C 2.598 -1.9999 0.0 0
M  V30 7 C 4.3301 -2.0 0.0 0
M  V30 8 C 0.866 0.0 0.0 0
M  V30 9 C 2.598 -2.9999 0.0 0
M  V30 10 C 4.3301 -3.0 0.0 0
M  V30 11 C 0.0 -0.5 0.0 0
M  V30 12 C 3.4641 -3.5 0.0 0
M  V30 13 N -0.9135 -0.0932 0.0 0
M  V30 14 C -0.1045 -1.4945 0.0 0
M  V30 15 N -1.5826 -0.8364 0.0 0
M  V30 16 C -1.0826 -1.7024 0.0 0
M  V30 17 C -2.5771 -0.7318 0.0 0
M  V30 18 C -2.9839 0.1816 0.0 0
M  V30 19 C -3.1649 -1.5408 0.0 0
M  V30 20 C -3.9784 0.2861 0.0 0
M  V30 21 C -4.1595 -1.4363 0.0 0
M  V30 22 C -4.5662 -0.5228 0.0 0
M  V30 END ATOM
M  V30 BEGIN BOND
M  V30 1 2 1 2
M  V30 2 1 2 3
M  V30 3 1 2 4
M  V30 4 1 3 5
M  V30 5 1 4 6
M  V30 6 1 4 7
M  V30 7 1 5 8
M  V30 8 1 6 9
M  V30 9 1 7 10
M  V30 10 1 8 11
M  V30 11 1 9 12
M  V30 12 2 11 13
M  V30 13 1 11 14
M  V30 14 1 13 15
M  V30 15 2 14 16
M  V30 16 1 15 17
M  V30 17 2 17 18
M  V30 18 1 17 19
M  V30 19 1 18 20
M  V30 20 2 19 21
M  V30 21 2 20 22
M  V30 22 1 10 12
M  V30 23 1 15 16
M  V30 24 1 21 22
M  V30 END BOND
M  V30 END CTAB
M  END
>  <Rack>
PathogenBox_PlateE

>  <Position>
B10

>  <Compound ID>
MMV688795

>  <Disease Set>
KINETOPLASTIDS

>  <Trivial Name>


>  <Total Molecular Weight>
297.39

>  <Molecular Weight Parent Molecule>
297.39

>  <Molecular Formula>
C18H23N3O

>  <Salt Name>


>  <Salt Coefficient>


>  <cLogP>
2.07

>  <SMILES>
O=C(NCCc1ccn(n1)c2ccccc2)C3CCCCC3

$$$$
Compound 340
Actelion Java MolfileCreator 2.0

  0  0  0  0  0  0              0 V3000
M  V30 BEGIN CTAB
M  V30 COUNTS 38 43 0 0 0
M  V30 BEGIN ATOM
M  V30 1 Cl 0.8568 4.43 0.0 0
M  V30 2 C 1.3568 3.564 0.0 0
M  V30 3 C 0.8568 2.6979 0.0 0
M  V30 4 C 2.3568 3.564 0.0 0
M  V30 5 C 1.3568 1.8319 0.0 0
M  V30 6 C 2.8568 2.6979 0.0 0
M  V30 7 C 2.3568 1.8319 0.0 0
M  V30 8 C 2.8568 0.9659 0.0 0 CFG=1
M  V30 9 N 2.598 0.0 0.0 0
M  V30 10 C 3.8228 0.7071 0.0 0 CFG=1
M  V30 11 C 3.564 -0.2588 0.0 0
M  V30 12 C 1.732 -0.5 0.0 0
M  V30 13 O 4.6888 1.2071 0.0 0
M  V30 14 O 4.064 -1.1248 0.0 0
M  V30 15 C 0.866 0.0 0.0 0
M  V30 16 C 4.6888 2.2071 0.0 0
M  V30 17 N 0.0 -0.5 0.0 0
M  V30 18 C 5.5548 2.7071 0.0 0
M  V30 19 C 3.8228 2.7071 0.0 0
M  V30 20 C -0.9135 -0.0932 0.0 0
M  V30 21 C -0.1045 -1.4945 0.0 0
M  V30 22 C 5.5548 3.7071 0.0 0
M  V30 23 C 3.8228 3.7071 0.0 0
M  V30 24 N -1.2225 0.8577 0.0 0
M  V30 25 C -1.5826 -0.8364 0.0 0
M  V30 26 N -1.0826 -1.7024 0.0 0
M  V30 27 C 4.6888 4.2071 0.0 0
M  V30 28 C -2.2007 1.0657 0.0 0
M  V30 29 C -2.5608 -0.6284 0.0 0
M  V30 30 N -2.8698 0.3225 0.0 0
M  V30 31 N -3.2299 -1.3716 0.0 0
M  V30 32 C -4.2081 -1.1637 0.0 0
M  V30 33 C -4.8772 -1.9068 0.0 0
M  V30 34 C -5.8553 -1.6989 0.0 0
M  V30 35 C -4.5682 -2.8579 0.0 0
M  V30 36 C -6.5245 -2.4421 0.0 0
M  V30 37 C -5.2373 -3.601 0.0 0
M  V30 38 C -6.2154 -3.3931 0.0 0
M  V30 END ATOM
M  V30 BEGIN BOND
M  V30 1 1 1 2
M  V30 2 2 2 3
M  V30 3 1 2 4
M  V30 4 1 3 5
M  V30 5 2 4 6
M  V30 6 2 5 7
M  V30 7 1 8 7 CFG=3
M  V30 8 1 8 9
M  V30 9 1 10 8
M  V30 10 1 9 11
M  V30 11 1 9 12
M  V30 12 1 10 13 CFG=3
M  V30 13 2 11 14
M  V30 14 1 12 15
M  V30 15 1 13 16
M  V30 16 1 15 17
M  V30 17 2 16 18
M  V30 18 1 16 19
M  V30 19 1 17 20
M  V30 20 1 17 21
M  V30 21 1 18 22
M  V30 22 2 19 23
M  V30 23 2 20 24
M  V30 24 1 20 25
M  V30 25 2 21 26
M  V30 26 2 22 27
M  V30 27 1 24 28
M  V30 28 2 25 29
M  V30 29 2 28 30
M  V30 30 1 29 31
M  V30 31 1 31 32
M  V30 32 1 32 33
M  V30 33 2 33 34
M  V30 34 1 33 35
M  V30 35 1 34 36
M  V30 36 2 35 37
M  V30 37 2 36 38
M  V30 38 1 6 7
M  V30 39 1 10 11
M  V30 40 1 23 27
M  V30 41 1 25 26
M  V30 42 1 29 30
M  V30 43 1 37 38
M  V30 END BOND
M  V30 BEGIN COLLECTION
M  V30 MDLV30/STEABS ATOMS=(2 8 10)
M  V30 END COLLECTION
M  V30 END CTAB
M  END
>  <Rack>
PathogenBox_PlateE

>  <Position>
B11

>  <Compound ID>
MMV688352

>  <Disease Set>
DENGUE

>  <Trivial Name>


>  <Total Molecular Weight>
525.00

>  <Molecular Weight Parent Molecule>
525.00

>  <Molecular Formula>
C29H25N6O2Cl

>  <Salt Name>


>  <Salt Coefficient>


>  <cLogP>
4.18

>  <SMILES>
Clc1ccc(cc1)[C@@H]2[C@H](Oc3ccccc3)C(=O)N2CCn4cnc5c(NCc6ccccc6)ncnc45

$$$$
Compound 341
Actelion Java MolfileCreator 2.0

  0  0  0  0  0  0              0 V3000
M  V30 BEGIN CTAB
M  V30 COUNTS 25 27 0 0 0
M  V30 BEGIN ATOM
M  V30 1 S 3.8971 0.0 0.0 0
M  V30 2 O 4.6471 1.299 0.0 0
M  V30 3 O 3.1471 1.299 0.0 0
M  V30 4 N 2.598 -0.75 0.0 0
M  V30 5 C 5.1961 -0.75 0.0 0
M  V30 6 C 2.598 -2.25 0.0 0
M  V30 7 C 1.299 0.0 0.0 0
M  V30 8 C 6.4952 0.0 0.0 0
M  V30 9 C 3.8971 -3.0 0.0 0
M  V30 10 C 0.0 -0.75 0.0 0
M  V30 11 C 3.8971 -4.5 0.0 0
M  V30 12 C 5.1961 -2.25 0.0 0
M  V30 13 O -1.3703 -0.1398 0.0 0
M  V30 14 C -0.1567 -2.2417 0.0 0
M  V30 15 O 2.598 -5.25 0.0 0
M  V30 16 N 5.1961 -5.25 0.0 0
M  V30 17 C 6.4952 -3.0 0.0 0
M  V30 18 C -2.374 -1.2546 0.0 0
M  V30 19 C -1.624 -2.5536 0.0 0
M  V30 20 C 6.4952 -4.5 0.0 0
M  V30 21 C 7.7942 -2.25 0.0 0
M  V30 22 C 7.7942 -5.25 0.0 0
M  V30 23 C 9.0932 -3.0 0.0 0
M  V30 24 C 9.0932 -4.5 0.0 0
M  V30 25 C 10.3923 -5.25 0.0 0
M  V30 END ATOM
M  V30 BEGIN BOND
M  V30 1 2 1 2
M  V30 2 2 1 3
M  V30 3 1 1 4
M  V30 4 1 1 5
M  V30 5 1 4 6
M  V30 6 1 4 7
M  V30 7 1 5 8
M  V30 8 1 6 9
M  V30 9 1 7 10
M  V30 10 1 9 11
M  V30 11 2 9 12
M  V30 12 1 10 13
M  V30 13 2 10 14
M  V30 14 1 11 15
M  V30 15 2 11 16
M  V30 16 1 12 17
M  V30 17 1 13 18
M  V30 18 1 14 19
M  V30 19 1 16 20
M  V30 20 2 17 21
M  V30 21 2 20 22
M  V30 22 1 21 23
M  V30 23 1 22 24
M  V30 24 1 24 25
M  V30 25 1 17 20
M  V30 26 2 18 19
M  V30 27 2 23 24
M  V30 END BOND
M  V30 END CTAB
M  END
>  <Rack>
PathogenBox_PlateE

>  <Position>
C02

>  <Compound ID>
MMV676398

>  <Disease Set>
WOLBACHIA LF

>  <Trivial Name>


>  <Total Molecular Weight>
360.43

>  <Molecular Weight Parent Molecule>
360.43

>  <Molecular Formula>
C18H20N2O4S

>  <Salt Name>


>  <Salt Coefficient>


>  <cLogP>
2.82

>  <SMILES>
CCS(=O)(=O)N(Cc1occc1)Cc2cc3ccc(C)cc3nc2O

$$$$
Compound 342
Actelion Java MolfileCreator 2.0

  0  0  0  0  0  0              0 V3000
M  V30 BEGIN CTAB
M  V30 COUNTS 29 32 0 0 0
M  V30 BEGIN ATOM
M  V30 1 Cl 5.1961 1.5 0.0 0
M  V30 2 C 4.3301 1.0 0.0 0
M  V30 3 C 3.4641 1.5 0.0 0
M  V30 4 C 4.3301 0.0 0.0 0
M  V30 5 C 3.4641 2.5 0.0 0
M  V30 6 C 2.598 0.9999 0.0 0
M  V30 7 C 3.4641 -0.4999 0.0 0
M  V30 8 S 4.2731 3.0877 0.0 0
M  V30 9 N 2.655 3.0877 0.0 0
M  V30 10 C 2.598 0.0 0.0 0
M  V30 11 C 3.9641 4.0388 0.0 0
M  V30 12 C 2.9641 4.0388 0.0 0
M  V30 13 N 1.732 -0.5 0.0 0
M  V30 14 C 4.4641 4.9048 0.0 0
M  V30 15 C 2.4641 4.9048 0.0 0
M  V30 16 C 0.866 0.0 0.0 0
M  V30 17 C 3.9641 5.7708 0.0 0
M  V30 18 C 2.9641 5.7708 0.0 0
M  V30 19 O 0.866 1.0 0.0 0
M  V30 20 C 0.0 -0.5 0.0 0
M  V30 21 C -0.866 0.0 0.0 0
M  V30 22 C 0.0 -1.4999 0.0 0
M  V30 23 O -0.866 1.0 0.0 0
M  V30 24 C -1.732 -0.4999 0.0 0
M  V30 25 O 0.866 -2.0 0.0 0
M  V30 26 C -0.866 -1.9999 0.0 0
M  V30 27 C -1.732 1.5 0.0 0
M  V30 28 C -1.732 -1.4999 0.0 0
M  V30 29 C 1.732 -1.5 0.0 0
M  V30 END ATOM
M  V30 BEGIN BOND
M  V30 1 1 1 2
M  V30 2 2 2 3
M  V30 3 1 2 4
M  V30 4 1 3 5
M  V30 5 1 3 6
M  V30 6 2 4 7
M  V30 7 1 5 8
M  V30 8 2 5 9
M  V30 9 2 6 10
M  V30 10 1 8 11
M  V30 11 1 9 12
M  V30 12 1 10 13
M  V30 13 1 11 14
M  V30 14 1 12 15
M  V30 15 1 13 16
M  V30 16 2 14 17
M  V30 17 2 15 18
M  V30 18 2 16 19
M  V30 19 1 16 20
M  V30 20 2 20 21
M  V30 21 1 20 22
M  V30 22 1 21 23
M  V30 23 1 21 24
M  V30 24 1 22 25
M  V30 25 2 22 26
M  V30 26 1 23 27
M  V30 27 2 24 28
M  V30 28 1 25 29
M  V30 29 1 7 10
M  V30 30 2 11 12
M  V30 31 1 17 18
M  V30 32 1 26 28
M  V30 END BOND
M  V30 END CTAB
M  END
>  <Rack>
PathogenBox_PlateE

>  <Position>
C03

>  <Compound ID>
MMV676472

>  <Disease Set>
TUBERCULOSIS

>  <Trivial Name>


>  <Total Molecular Weight>
424.90

>  <Molecular Weight Parent Molecule>
424.90

>  <Molecular Formula>
C22H17N2O3ClS

>  <Salt Name>


>  <Salt Coefficient>


>  <cLogP>
5.11

>  <SMILES>
COc1cccc(OC)c1C(=O)Nc2ccc(Cl)c(c2)c3nc4ccccc4s3

$$$$
Compound 343
Actelion Java MolfileCreator 2.0

  0  0  0  0  0  0              0 V3000
M  V30 BEGIN CTAB
M  V30 COUNTS 32 35 0 0 0
M  V30 BEGIN ATOM
M  V30 1 F 10.3923 -0.7499 0.0 0
M  V30 2 C 10.3923 -2.2499 0.0 0
M  V30 3 C 9.0932 -3.0 0.0 0
M  V30 4 C 11.6913 -2.9999 0.0 0
M  V30 5 C 7.7942 -2.25 0.0 0
M  V30 6 C 9.0932 -4.5 0.0 0
M  V30 7 C 11.6913 -4.5 0.0 0
M  V30 8 O 7.7942 -0.7499 0.0 0
M  V30 9 C 6.4951 -3.0 0.0 0
M  V30 10 N 7.7942 -5.2499 0.0 0
M  V30 11 C 10.3923 -5.2499 0.0 0
M  V30 12 F 12.9903 -5.2499 0.0 0
M  V30 13 C 5.1961 -2.2499 0.0 0
M  V30 14 C 6.4951 -4.5 0.0 0
M  V30 15 C 5.1961 -0.75 0.0 0
M  V30 16 C 3.8971 -2.9999 0.0 0
M  V30 17 C 5.1961 -5.25 0.0 0
M  V30 18 C 3.8971 0.0 0.0 0
M  V30 19 C 2.598 -2.25 0.0 0
M  V30 20 C 2.598 -0.75 0.0 0
M  V30 21 O 1.299 0.0 0.0 0
M  V30 22 C 0.0 -0.75 0.0 0
M  V30 23 C -1.299 0.0 0.0 0
M  V30 24 C 0.0 -2.25 0.0 0
M  V30 25 C -2.598 -0.7499 0.0 0
M  V30 26 C -1.299 -2.9999 0.0 0
M  V30 27 C -2.598 -2.2499 0.0 0
M  V30 28 O -3.8971 -2.9999 0.0 0
M  V30 29 C -3.8971 -4.4999 0.0 0
M  V30 30 F -2.3971 -4.4999 0.0 0
M  V30 31 F -3.8971 -5.9999 0.0 0
M  V30 32 F -5.3971 -4.4999 0.0 0
M  V30 END ATOM
M  V30 BEGIN BOND
M  V30 1 1 1 2
M  V30 2 2 2 3
M  V30 3 1 2 4
M  V30 4 1 3 5
M  V30 5 1 3 6
M  V30 6 2 4 7
M  V30 7 2 5 8
M  V30 8 1 5 9
M  V30 9 1 6 10
M  V30 10 2 6 11
M  V30 11 1 7 12
M  V30 12 1 9 13
M  V30 13 2 9 14
M  V30 14 2 13 15
M  V30 15 1 13 16
M  V30 16 1 14 17
M  V30 17 1 15 18
M  V30 18 2 16 19
M  V30 19 2 18 20
M  V30 20 1 20 21
M  V30 21 1 21 22
M  V30 22 2 22 23
M  V30 23 1 22 24
M  V30 24 1 23 25
M  V30 25 2 24 26
M  V30 26 2 25 27
M  V30 27 1 27 28
M  V30 28 1 28 29
M  V30 29 1 29 30
M  V30 30 1 29 31
M  V30 31 1 29 32
M  V30 32 1 7 11
M  V30 33 1 10 14
M  V30 34 1 19 20
M  V30 35 1 26 27
M  V30 END BOND
M  V30 END CTAB
M  END
>  <Rack>
PathogenBox_PlateE

>  <Position>
C04

>  <Compound ID>
MMV671636

>  <Disease Set>
ONCHOCERCIASIS

>  <Trivial Name>


>  <Total Molecular Weight>
447.36

>  <Molecular Weight Parent Molecule>
447.36

>  <Molecular Formula>
C23H14NO3F5

>  <Salt Name>


>  <Salt Coefficient>


>  <cLogP>
5.48

>  <SMILES>
CC1=C(C(=O)c2c(F)cc(F)cc2N1)c3ccc(Oc4ccc(OC(F)(F)F)cc4)cc3

$$$$
Compound 344
Actelion Java MolfileCreator 2.0

  0  0  0  0  0  0              0 V3000
M  V30 BEGIN CTAB
M  V30 COUNTS 25 28 0 0 0
M  V30 BEGIN ATOM
M  V30 1 N 2.2146 -4.783 0.0 0
M  V30 2 C 1.7511 -3.3565 0.0 0
M  V30 3 C 3.6819 -5.0949 0.0 0
M  V30 4 N 0.2839 -3.0446 0.0 0
M  V30 5 C 2.7548 -2.2417 0.0 0
M  V30 6 N 4.6856 -3.9802 0.0 0
M  V30 7 C 4.222 -2.5536 0.0 0
M  V30 8 C 2.598 -0.75 0.0 0
M  V30 9 N 4.972 -1.2546 0.0 0
M  V30 10 N 3.9683 -0.1398 0.0 0
M  V30 11 C 1.299 0.0 0.0 0
M  V30 12 C 6.4638 -1.0978 0.0 0
M  V30 13 C 1.299 1.4999 0.0 0
M  V30 14 C 6.307 0.3939 0.0 0
M  V30 15 C 7.9556 -0.941 0.0 0
M  V30 16 C 6.6206 -2.5896 0.0 0
M  V30 17 C 2.598 2.2499 0.0 0
M  V30 18 C 0.0 2.25 0.0 0
M  V30 19 C 2.598 3.7499 0.0 0
M  V30 20 C 3.8971 1.4999 0.0 0
M  V30 21 C 0.0 3.75 0.0 0
M  V30 22 C 1.299 4.5 0.0 0
M  V30 23 C 3.8971 4.4999 0.0 0
M  V30 24 C 5.1961 2.2499 0.0 0
M  V30 25 C 5.1961 3.7499 0.0 0
M  V30 END ATOM
M  V30 BEGIN BOND
M  V30 1 2 1 2
M  V30 2 1 1 3
M  V30 3 1 2 4
M  V30 4 1 2 5
M  V30 5 2 3 6
M  V30 6 2 5 7
M  V30 7 1 5 8
M  V30 8 1 7 9
M  V30 9 2 8 10
M  V30 10 1 8 11
M  V30 11 1 9 12
M  V30 12 1 11 13
M  V30 13 1 12 14
M  V30 14 1 12 15
M  V30 15 1 12 16
M  V30 16 1 13 17
M  V30 17 2 13 18
M  V30 18 1 17 19
M  V30 19 2 17 20
M  V30 20 1 18 21
M  V30 21 1 19 22
M  V30 22 2 19 23
M  V30 23 1 20 24
M  V30 24 1 23 25
M  V30 25 1 6 7
M  V30 26 1 9 10
M  V30 27 2 21 22
M  V30 28 2 24 25
M  V30 END BOND
M  V30 END CTAB
M  END
>  <Rack>
PathogenBox_PlateE

>  <Position>
C05

>  <Compound ID>
MMV676599

>  <Disease Set>
CRYPTOSPORIDIOSIS

>  <Trivial Name>


>  <Total Molecular Weight>
331.41

>  <Molecular Weight Parent Molecule>
331.41

>  <Molecular Formula>
C20H21N5

>  <Salt Name>


>  <Salt Coefficient>


>  <cLogP>
3.36

>  <SMILES>
CC(C)(C)n1nc(Cc2cccc3ccccc23)c4c(N)ncnc14

$$$$
Compound 345
Actelion Java MolfileCreator 2.0

  0  0  0  0  0  0              0 V3000
M  V30 BEGIN CTAB
M  V30 COUNTS 32 35 0 0 0
M  V30 BEGIN ATOM
M  V30 1 Cl 5.1961 1.5 0.0 0
M  V30 2 C 4.3301 1.0 0.0 0
M  V30 3 C 3.4641 1.5 0.0 0
M  V30 4 C 4.3301 0.0 0.0 0
M  V30 5 C 2.598 0.9999 0.0 0
M  V30 6 C 3.4641 -0.4999 0.0 0
M  V30 7 C 2.598 0.0 0.0 0
M  V30 8 C 1.732 -0.5 0.0 0 CFG=1
M  V30 9 C 1.732 -1.5 0.0 0
M  V30 10 C 0.866 0.0 0.0 0
M  V30 11 C 0.866 -1.9999 0.0 0
M  V30 12 C 2.598 -2.0 0.0 0
M  V30 13 O 0.866 1.0 0.0 0
M  V30 14 N 0.0 -0.5 0.0 0
M  V30 15 N 0.866 -2.9999 0.0 0
M  V30 16 C 2.598 -3.0 0.0 0
M  V30 17 C -0.866 0.0 0.0 0
M  V30 18 C 0.0 -1.4999 0.0 0
M  V30 19 C 1.732 -3.5 0.0 0
M  V30 20 C -1.732 -0.4999 0.0 0
M  V30 21 C -0.866 -1.9999 0.0 0
M  V30 22 N -1.732 -1.4999 0.0 0
M  V30 23 C -2.598 -1.9999 0.0 0
M  V30 24 C -3.4641 -1.4999 0.0 0
M  V30 25 C -2.598 -2.9999 0.0 0
M  V30 26 C -4.3301 -1.9999 0.0 0
M  V30 27 C -3.4641 -3.4999 0.0 0
M  V30 28 C -4.3301 -2.9999 0.0 0
M  V30 29 C -5.1961 -3.4999 0.0 0
M  V30 30 F -4.6961 -4.366 0.0 0
M  V30 31 F -6.0621 -3.9999 0.0 0
M  V30 32 F -5.6961 -2.6339 0.0 0
M  V30 END ATOM
M  V30 BEGIN BOND
M  V30 1 1 1 2
M  V30 2 2 2 3
M  V30 3 1 2 4
M  V30 4 1 3 5
M  V30 5 2 4 6
M  V30 6 2 5 7
M  V30 7 1 8 7 CFG=1
M  V30 8 1 8 9
M  V30 9 1 8 10
M  V30 10 2 9 11
M  V30 11 1 9 12
M  V30 12 2 10 13
M  V30 13 1 10 14
M  V30 14 1 11 15
M  V30 15 2 12 16
M  V30 16 1 14 17
M  V30 17 1 14 18
M  V30 18 2 15 19
M  V30 19 1 17 20
M  V30 20 1 18 21
M  V30 21 1 20 22
M  V30 22 1 22 23
M  V30 23 2 23 24
M  V30 24 1 23 25
M  V30 25 1 24 26
M  V30 26 2 25 27
M  V30 27 2 26 28
M  V30 28 1 28 29
M  V30 29 1 29 30
M  V30 30 1 29 31
M  V30 31 1 29 32
M  V30 32 1 6 7
M  V30 33 1 16 19
M  V30 34 1 21 22
M  V30 35 1 27 28
M  V30 END BOND
M  V30 BEGIN COLLECTION
M  V30 MDLV30/STEABS ATOMS=(1 8)
M  V30 END COLLECTION
M  V30 END CTAB
M  END
>  <Rack>
PathogenBox_PlateE

>  <Position>
C06

>  <Compound ID>
MMV689244

>  <Disease Set>
KINETOPLASTIDS

>  <Trivial Name>


>  <Total Molecular Weight>
459.89

>  <Molecular Weight Parent Molecule>
459.89

>  <Molecular Formula>
C24H21N3OClF3

>  <Salt Name>


>  <Salt Coefficient>


>  <cLogP>
4.92

>  <SMILES>
FC(F)(F)c1ccc(cc1)N2CCN(CC2)C(=O)[C@@H](c3ccc(Cl)cc3)c4cccnc4

$$$$
Compound 346
Actelion Java MolfileCreator 2.0

  0  0  0  0  0  0              0 V3000
M  V30 BEGIN CTAB
M  V30 COUNTS 27 31 0 0 0
M  V30 BEGIN ATOM
M  V30 1 N 4.6018 0.3225 0.0 0
M  V30 2 C 4.2928 -0.6284 0.0 0
M  V30 3 C 3.9327 1.0657 0.0 0
M  V30 4 N 4.962 -1.3716 0.0 0
M  V30 5 C 3.3147 -0.8364 0.0 0
M  V30 6 N 2.9546 0.8577 0.0 0
M  V30 7 C 2.6455 -0.0932 0.0 0
M  V30 8 C 2.8147 -1.7024 0.0 0
M  V30 9 N 1.732 -0.5 0.0 0
M  V30 10 N 1.8365 -1.4945 0.0 0
M  V30 11 C 3.2214 -2.6159 0.0 0
M  V30 12 C 0.866 0.0 0.0 0
M  V30 13 C 2.6336 -3.4249 0.0 0
M  V30 14 C 4.2159 -2.7205 0.0 0
M  V30 15 C 0.0 -0.5 0.0 0
M  V30 16 N 3.0404 -4.3385 0.0 0
M  V30 17 C 4.6227 -3.634 0.0 0
M  V30 18 C -0.866 0.0 0.0 0
M  V30 19 C 0.0 -1.4999 0.0 0
M  V30 20 C 4.0349 -4.443 0.0 0
M  V30 21 C 5.6172 -3.7385 0.0 0
M  V30 22 C -1.732 -0.4999 0.0 0
M  V30 23 C -0.866 -1.9999 0.0 0
M  V30 24 C 4.4416 -5.3566 0.0 0
M  V30 25 C 6.0239 -4.6521 0.0 0
M  V30 26 N -1.732 -1.4999 0.0 0
M  V30 27 C 5.4361 -5.4611 0.0 0
M  V30 END ATOM
M  V30 BEGIN BOND
M  V30 1 2 1 2
M  V30 2 1 1 3
M  V30 3 1 2 4
M  V30 4 1 2 5
M  V30 5 2 3 6
M  V30 6 2 5 7
M  V30 7 1 5 8
M  V30 8 1 7 9
M  V30 9 2 8 10
M  V30 10 1 8 11
M  V30 11 1 9 12
M  V30 12 1 11 13
M  V30 13 2 11 14
M  V30 14 1 12 15
M  V30 15 2 13 16
M  V30 16 1 14 17
M  V30 17 1 15 18
M  V30 18 1 15 19
M  V30 19 1 16 20
M  V30 20 2 17 21
M  V30 21 1 18 22
M  V30 22 1 19 23
M  V30 23 2 20 24
M  V30 24 1 21 25
M  V30 25 1 22 26
M  V30 26 1 24 27
M  V30 27 1 6 7
M  V30 28 1 9 10
M  V30 29 1 17 20
M  V30 30 1 23 26
M  V30 31 2 25 27
M  V30 END BOND
M  V30 END CTAB
M  END
>  <Rack>
PathogenBox_PlateE

>  <Position>
C07

>  <Compound ID>
MMV688411

>  <Disease Set>
TOXOPLASMOSIS

>  <Trivial Name>


>  <Total Molecular Weight>
359.43

>  <Molecular Weight Parent Molecule>
359.43

>  <Molecular Formula>
C20H21N7

>  <Salt Name>


>  <Salt Coefficient>


>  <cLogP>
1.79

>  <SMILES>
Nc1ncnc2n(CC3CCNCC3)nc(-c3cnc4ccccc4c3)c12

$$$$
Compound 347
Actelion Java MolfileCreator 2.0

  0  0  0  0  0  0              0 V3000
M  V30 BEGIN CTAB
M  V30 COUNTS 32 36 0 0 0
M  V30 BEGIN ATOM
M  V30 1 O 1.299 0.0 0.0 0
M  V30 2 C 2.598 -0.75 0.0 0
M  V30 3 C 0.0 -0.75 0.0 0
M  V30 4 N 2.598 -2.25 0.0 0
M  V30 5 C 3.8971 0.0 0.0 0
M  V30 6 C -1.299 0.0 0.0 0
M  V30 7 C 0.0 -2.25 0.0 0
M  V30 8 C 3.8971 -3.0 0.0 0
M  V30 9 C 5.1961 -0.75 0.0 0
M  V30 10 C 3.8971 1.4999 0.0 0
M  V30 11 C -2.598 -0.7499 0.0 0
M  V30 12 C -1.299 -2.9999 0.0 0
M  V30 13 N 5.1961 -2.25 0.0 0
M  V30 14 N 3.8971 -4.5 0.0 0
M  V30 15 C -2.598 -2.2499 0.0 0
M  V30 16 C 2.598 -5.25 0.0 0
M  V30 17 C 5.1961 -5.25 0.0 0
M  V30 18 N -3.8971 -2.9999 0.0 0
M  V30 19 C 2.598 -6.75 0.0 0 CFG=1
M  V30 20 C 5.1961 -6.75 0.0 0
M  V30 21 C -5.2674 -2.3898 0.0 0
M  V30 22 C -4.0539 -4.4917 0.0 0
M  V30 23 N 3.8971 -7.5 0.0 0
M  V30 24 C 1.299 -7.5 0.0 0
M  V30 25 N -6.2711 -3.5046 0.0 0
M  V30 26 C -5.5211 -4.8036 0.0 0
M  V30 27 C 1.299 -9.0 0.0 0
M  V30 28 C 0.0 -9.75 0.0 0
M  V30 29 C 2.598 -9.75 0.0 0
M  V30 30 C 0.0 -11.25 0.0 0
M  V30 31 C 2.598 -11.25 0.0 0
M  V30 32 C 1.299 -12.0 0.0 0
M  V30 END ATOM
M  V30 BEGIN BOND
M  V30 1 1 1 2
M  V30 2 1 1 3
M  V30 3 2 2 4
M  V30 4 1 2 5
M  V30 5 2 3 6
M  V30 6 1 3 7
M  V30 7 1 4 8
M  V30 8 2 5 9
M  V30 9 1 5 10
M  V30 10 1 6 11
M  V30 11 2 7 12
M  V30 12 2 8 13
M  V30 13 1 8 14
M  V30 14 2 11 15
M  V30 15 1 14 16
M  V30 16 1 14 17
M  V30 17 1 15 18
M  V30 18 1 19 16
M  V30 19 1 17 20
M  V30 20 1 18 21
M  V30 21 1 18 22
M  V30 22 1 19 23
M  V30 23 1 19 24 CFG=1
M  V30 24 2 21 25
M  V30 25 2 22 26
M  V30 26 1 24 27
M  V30 27 2 27 28
M  V30 28 1 27 29
M  V30 29 1 28 30
M  V30 30 2 29 31
M  V30 31 2 30 32
M  V30 32 1 9 13
M  V30 33 1 12 15
M  V30 34 1 20 23
M  V30 35 1 25 26
M  V30 36 1 31 32
M  V30 END BOND
M  V30 BEGIN COLLECTION
M  V30 MDLV30/STEABS ATOMS=(1 19)
M  V30 END COLLECTION
M  V30 END CTAB
M  END
>  <Rack>
PathogenBox_PlateE

>  <Position>
C08

>  <Compound ID>
MMV687765

>  <Disease Set>
TUBERCULOSIS

>  <Trivial Name>


>  <Total Molecular Weight>
462.97

>  <Molecular Weight Parent Molecule>
426.51

>  <Molecular Formula>
C25H26N6O

>  <Salt Name>
Hydrochloride

>  <Salt Coefficient>
1

>  <cLogP>
3.47

>  <SMILES>
Cc1cnc(nc1Oc2ccc(cc2)n3ccnc3)N4CCN[C@@H](Cc5ccccc5)C4

$$$$
Compound 348
Actelion Java MolfileCreator 2.0

  0  0  0  0  0  0              0 V3000
M  V30 BEGIN CTAB
M  V30 COUNTS 27 28 0 0 0
M  V30 BEGIN ATOM
M  V30 1 F 9.3923 2.4999 0.0 0
M  V30 2 C 10.3923 2.4999 0.0 0
M  V30 3 F 10.3923 3.4999 0.0 0
M  V30 4 F 11.3923 2.4999 0.0 0
M  V30 5 C 10.3923 1.4999 0.0 0
M  V30 6 C 9.5262 0.9999 0.0 0
M  V30 7 C 11.2583 0.9999 0.0 0
M  V30 8 C 9.5262 0.0 0.0 0
M  V30 9 C 11.2583 0.0 0.0 0
M  V30 10 N 8.6602 -0.5 0.0 0
M  V30 11 C 10.3923 -0.5 0.0 0
M  V30 12 C 7.7942 0.0 0.0 0
M  V30 13 O 7.7942 0.9999 0.0 0
M  V30 14 C 6.9282 -0.5 0.0 0
M  V30 15 C 6.0621 0.0 0.0 0
M  V30 16 C 6.9282 -1.5 0.0 0
M  V30 17 C 5.1961 -0.5 0.0 0
M  V30 18 C 6.0621 -2.0 0.0 0
M  V30 19 N 4.3301 0.0 0.0 0
M  V30 20 C 5.1961 -1.5 0.0 0
M  V30 21 C 3.4641 -0.5 0.0 0
M  V30 22 O 3.4641 -1.5 0.0 0
M  V30 23 C 2.598 0.0 0.0 0
M  V30 24 N 1.732 -0.5 0.0 0
M  V30 25 C 0.866 0.0 0.0 0
M  V30 26 C 0.866 1.0 0.0 0
M  V30 27 C 0.0 -0.5 0.0 0
M  V30 END ATOM
M  V30 BEGIN BOND
M  V30 1 1 1 2
M  V30 2 1 2 3
M  V30 3 1 2 4
M  V30 4 1 2 5
M  V30 5 2 5 6
M  V30 6 1 5 7
M  V30 7 1 6 8
M  V30 8 2 7 9
M  V30 9 1 8 10
M  V30 10 2 8 11
M  V30 11 1 10 12
M  V30 12 2 12 13
M  V30 13 1 12 14
M  V30 14 2 14 15
M  V30 15 1 14 16
M  V30 16 1 15 17
M  V30 17 2 16 18
M  V30 18 1 17 19
M  V30 19 2 17 20
M  V30 20 1 19 21
M  V30 21 2 21 22
M  V30 22 1 21 23
M  V30 23 1 23 24
M  V30 24 1 24 25
M  V30 25 1 25 26
M  V30 26 1 25 27
M  V30 27 1 9 11
M  V30 28 1 18 20
M  V30 END BOND
M  V30 END CTAB
M  END
>  <Rack>
PathogenBox_PlateE

>  <Position>
C09

>  <Compound ID>
MMV020165

>  <Disease Set>
MALARIA

>  <Trivial Name>


>  <Total Molecular Weight>
379.38

>  <Molecular Weight Parent Molecule>
379.38

>  <Molecular Formula>
C19H20N3O2F3

>  <Salt Name>


>  <Salt Coefficient>


>  <cLogP>
3.15

>  <SMILES>
CC(C)NCC(=O)Nc1cccc(c1)C(=O)Nc2cccc(c2)C(F)(F)F

$$$$
Compound 349
Actelion Java MolfileCreator 2.0

  0  0  0  0  0  0              0 V3000
M  V30 BEGIN CTAB
M  V30 COUNTS 15 16 0 0 0
M  V30 BEGIN ATOM
M  V30 1 Cl 6.4951 -3.0 0.0 0
M  V30 2 C 5.1961 -2.25 0.0 0
M  V30 3 C 5.1961 -0.75 0.0 0
M  V30 4 C 3.8971 -2.9999 0.0 0
M  V30 5 C 3.8971 0.0 0.0 0
M  V30 6 C 2.598 -2.25 0.0 0
M  V30 7 C 2.598 -0.75 0.0 0
M  V30 8 N 1.299 0.0 0.0 0
M  V30 9 C 0.0 -0.75 0.0 0
M  V30 10 N -1.299 0.0 0.0 0
M  V30 11 C 0.0 -2.25 0.0 0
M  V30 12 C -2.598 -0.7499 0.0 0
M  V30 13 N 1.299 -3.0 0.0 0
M  V30 14 C -1.299 -2.9999 0.0 0
M  V30 15 C -2.598 -2.2499 0.0 0
M  V30 END ATOM
M  V30 BEGIN BOND
M  V30 1 1 1 2
M  V30 2 2 2 3
M  V30 3 1 2 4
M  V30 4 1 3 5
M  V30 5 2 4 6
M  V30 6 2 5 7
M  V30 7 1 7 8
M  V30 8 1 8 9
M  V30 9 2 9 10
M  V30 10 1 9 11
M  V30 11 1 10 12
M  V30 12 1 11 13
M  V30 13 2 11 14
M  V30 14 2 12 15
M  V30 15 1 6 7
M  V30 16 1 14 15
M  V30 END BOND
M  V30 END CTAB
M  END
>  <Rack>
PathogenBox_PlateE

>  <Position>
C10

>  <Compound ID>
MMV676524

>  <Disease Set>
TUBERCULOSIS

>  <Trivial Name>


>  <Total Molecular Weight>
219.67

>  <Molecular Weight Parent Molecule>
219.67

>  <Molecular Formula>
C11H10N3Cl

>  <Salt Name>


>  <Salt Coefficient>


>  <cLogP>
2.47

>  <SMILES>
Nc1cccnc1Nc2ccc(Cl)cc2

$$$$
Compound 350
Actelion Java MolfileCreator 2.0

  0  0  0  0  0  0              0 V3000
M  V30 BEGIN CTAB
M  V30 COUNTS 22 24 0 0 0
M  V30 BEGIN ATOM
M  V30 1 S 4.4346 0.9945 0.0 0
M  V30 2 C 4.3301 0.0 0.0 0
M  V30 3 C 5.4128 1.2024 0.0 0
M  V30 4 N 5.2436 -0.4067 0.0 0
M  V30 5 N 3.4641 -0.5 0.0 0
M  V30 6 N 5.9128 0.3364 0.0 0
M  V30 7 C 5.8195 2.1159 0.0 0
M  V30 8 C 2.598 0.0 0.0 0
M  V30 9 O 2.598 1.0 0.0 0
M  V30 10 C 1.732 -0.5 0.0 0 CFG=1
M  V30 11 S 1.732 -1.5 0.0 0
M  V30 12 C 0.866 0.0 0.0 0
M  V30 13 C 2.598 -1.9999 0.0 0
M  V30 14 C 0.0 -0.5 0.0 0
M  V30 15 O 2.7026 -2.9945 0.0 0
M  V30 16 N 3.5116 -1.5932 0.0 0
M  V30 17 C 3.6807 -3.2024 0.0 0
M  V30 18 C 4.1807 -2.3364 0.0 0
M  V30 19 C 4.1807 -4.0684 0.0 0
M  V30 20 C 5.1807 -2.3364 0.0 0
M  V30 21 C 5.1807 -4.0684 0.0 0
M  V30 22 C 5.6807 -3.2024 0.0 0
M  V30 END ATOM
M  V30 BEGIN BOND
M  V30 1 1 1 2
M  V30 2 1 1 3
M  V30 3 2 2 4
M  V30 4 1 2 5
M  V30 5 2 3 6
M  V30 6 1 3 7
M  V30 7 1 5 8
M  V30 8 2 8 9
M  V30 9 1 10 8
M  V30 10 1 10 11 CFG=1
M  V30 11 1 10 12
M  V30 12 1 11 13
M  V30 13 1 12 14
M  V30 14 1 13 15
M  V30 15 2 13 16
M  V30 16 1 15 17
M  V30 17 1 16 18
M  V30 18 1 17 19
M  V30 19 1 18 20
M  V30 20 2 19 21
M  V30 21 2 20 22
M  V30 22 1 4 6
M  V30 23 2 17 18
M  V30 24 1 21 22
M  V30 END BOND
M  V30 BEGIN COLLECTION
M  V30 MDLV30/STERAC1 ATOMS=(1 10)
M  V30 END COLLECTION
M  V30 END CTAB
M  END
>  <Rack>
PathogenBox_PlateE

>  <Position>
C11

>  <Compound ID>
MMV611037

>  <Disease Set>
TUBERCULOSIS

>  <Trivial Name>


>  <Total Molecular Weight>
334.42

>  <Molecular Weight Parent Molecule>
334.42

>  <Molecular Formula>
C14H14N4O2S2

>  <Salt Name>


>  <Salt Coefficient>


>  <cLogP>
3.32

>  <SMILES>
CCC(Sc1oc2ccccc2n1)C(=O)Nc3nnc(C)s3

$$$$
Compound 351
Actelion Java MolfileCreator 2.0

  0  0  0  0  0  0              0 V3000
M  V30 BEGIN CTAB
M  V30 COUNTS 25 27 0 0 0
M  V30 BEGIN ATOM
M  V30 1 Cl 6.0753 2.3193 0.0 0
M  V30 2 C 5.8674 1.3411 0.0 0
M  V30 3 C 4.9163 1.0321 0.0 0
M  V30 4 C 6.6105 0.672 0.0 0
M  V30 5 C 4.7084 0.054 0.0 0
M  V30 6 C 6.4026 -0.306 0.0 0
M  V30 7 C 5.4515 -0.6151 0.0 0
M  V30 8 C 5.2436 -1.5932 0.0 0
M  V30 9 C 4.3301 -1.9999 0.0 0
M  V30 10 C 5.9128 -2.3364 0.0 0
M  V30 11 O 4.4346 -2.9945 0.0 0
M  V30 12 C 3.4641 -1.4999 0.0 0
M  V30 13 N 5.4128 -3.2024 0.0 0
M  V30 14 C 6.9073 -2.2318 0.0 0
M  V30 15 C 2.598 -2.0 0.0 0
M  V30 16 C 3.4641 -0.5 0.0 0
M  V30 17 F 6.8027 -1.2373 0.0 0
M  V30 18 F 7.9018 -2.1273 0.0 0
M  V30 19 F 7.0118 -3.2264 0.0 0
M  V30 20 O 2.598 -3.0 0.0 0
M  V30 21 C 1.732 -1.5 0.0 0
M  V30 22 C 2.598 0.0 0.0 0
M  V30 23 C 1.732 -0.5 0.0 0
M  V30 24 O 0.866 0.0 0.0 0
M  V30 25 C 0.866 0.9999 0.0 0
M  V30 END ATOM
M  V30 BEGIN BOND
M  V30 1 1 1 2
M  V30 2 2 2 3
M  V30 3 1 2 4
M  V30 4 1 3 5
M  V30 5 2 4 6
M  V30 6 2 5 7
M  V30 7 1 7 8
M  V30 8 2 8 9
M  V30 9 1 8 10
M  V30 10 1 9 11
M  V30 11 1 9 12
M  V30 12 2 10 13
M  V30 13 1 10 14
M  V30 14 2 12 15
M  V30 15 1 12 16
M  V30 16 1 14 17
M  V30 17 1 14 18
M  V30 18 1 14 19
M  V30 19 1 15 20
M  V30 20 1 15 21
M  V30 21 2 16 22
M  V30 22 2 21 23
M  V30 23 1 23 24
M  V30 24 1 24 25
M  V30 25 1 6 7
M  V30 26 1 11 13
M  V30 27 1 22 23
M  V30 END BOND
M  V30 END CTAB
M  END
>  <Rack>
PathogenBox_PlateE

>  <Position>
D02

>  <Compound ID>
MMV688766

>  <Disease Set>
SCHISTOSOMIASIS

>  <Trivial Name>


>  <Total Molecular Weight>
369.72

>  <Molecular Weight Parent Molecule>
369.72

>  <Molecular Formula>
C17H11NO3ClF3

>  <Salt Name>


>  <Salt Coefficient>


>  <cLogP>
4.57

>  <SMILES>
COc1ccc(c(O)c1)c2onc(c2c3ccc(Cl)cc3)C(F)(F)F

$$$$
Compound 352
Actelion Java MolfileCreator 2.0

  0  0  0  0  0  0              0 V3000
M  V30 BEGIN CTAB
M  V30 COUNTS 23 25 0 0 0
M  V30 BEGIN ATOM
M  V30 1 Br 7.8774 2.274 0.0 0
M  V30 2 C 6.5645 1.516 0.0 0
M  V30 3 C 5.2516 2.274 0.0 0
M  V30 4 C 6.5645 0.0 0.0 0
M  V30 5 C 3.9387 1.516 0.0 0
M  V30 6 C 5.2516 -0.758 0.0 0
M  V30 7 C 3.9387 0.0 0.0 0
M  V30 8 N 2.6298 -0.6029 0.0 0
M  V30 9 C 1.3129 0.0 0.0 0
M  V30 10 O 1.3129 1.516 0.0 0
M  V30 11 C 0.0 -0.758 0.0 0
M  V30 12 C 1.2714 -1.5836 0.0 0
M  V30 13 C -1.3849 -0.1413 0.0 0
M  V30 14 C -0.1584 -2.2657 0.0 0
M  V30 15 C 1.192 -3.0976 0.0 0
M  V30 16 C 2.614 -1.2055 0.0 0
M  V30 17 C -2.3993 -1.268 0.0 0
M  V30 18 C -1.6413 -2.5809 0.0 0
M  V30 19 C 2.4635 -3.9232 0.0 0
M  V30 20 C 3.8936 -1.7211 0.0 0
M  V30 21 C 3.8142 -3.235 0.0 0
M  V30 22 O 5.0857 -4.0607 0.0 0
M  V30 23 C 6.4365 -3.3724 0.0 0
M  V30 END ATOM
M  V30 BEGIN BOND
M  V30 1 1 1 2
M  V30 2 2 2 3
M  V30 3 1 2 4
M  V30 4 1 3 5
M  V30 5 2 4 6
M  V30 6 2 5 7
M  V30 7 1 7 8
M  V30 8 1 8 9
M  V30 9 2 9 10
M  V30 10 1 9 11
M  V30 11 1 11 12
M  V30 12 1 11 13
M  V30 13 1 11 14
M  V30 14 2 12 15
M  V30 15 1 12 16
M  V30 16 1 13 17
M  V30 17 1 14 18
M  V30 18 1 15 19
M  V30 19 2 16 20
M  V30 20 2 19 21
M  V30 21 1 21 22
M  V30 22 1 22 23
M  V30 23 1 6 7
M  V30 24 1 17 18
M  V30 25 1 20 21
M  V30 END BOND
M  V30 END CTAB
M  END
>  <Rack>
PathogenBox_PlateE

>  <Position>
D03

>  <Compound ID>
MMV200748

>  <Disease Set>
TUBERCULOSIS

>  <Trivial Name>


>  <Total Molecular Weight>
374.28

>  <Molecular Weight Parent Molecule>
374.28

>  <Molecular Formula>
C19H20NO2Br

>  <Salt Name>


>  <Salt Coefficient>


>  <cLogP>
4.27

>  <SMILES>
COc1ccc(cc1)C2(CCCC2)C(=O)Nc3ccc(Br)cc3

$$$$
Compound 353
Actelion Java MolfileCreator 2.0

  0  0  0  0  0  0              0 V3000
M  V30 BEGIN CTAB
M  V30 COUNTS 34 37 0 0 0
M  V30 BEGIN ATOM
M  V30 1 Cl 12.9903 -5.25 0.0 0
M  V30 2 C 11.6913 -4.5 0.0 0
M  V30 3 C 11.6913 -3.0 0.0 0
M  V30 4 C 10.3923 -5.25 0.0 0
M  V30 5 C 10.3923 -2.25 0.0 0
M  V30 6 C 9.0932 -4.5 0.0 0
M  V30 7 C 9.0932 -3.0 0.0 0
M  V30 8 C 10.3923 -0.75 0.0 0
M  V30 9 N 7.7942 -2.25 0.0 0
M  V30 10 C 11.6913 0.0 0.0 0
M  V30 11 C 9.0932 0.0 0.0 0
M  V30 12 C 7.7942 -0.75 0.0 0
M  V30 13 O 11.6913 1.5 0.0 0
M  V30 14 N 12.9903 -0.75 0.0 0
M  V30 15 N 6.4951 0.0 0.0 0
M  V30 16 C 14.2894 0.0 0.0 0
M  V30 17 C 5.1961 -0.75 0.0 0
M  V30 18 C 15.5884 -0.75 0.0 0
M  V30 19 C 3.8971 0.0 0.0 0
M  V30 20 N 16.8875 0.0 0.0 0
M  V30 21 C 2.598 -0.75 0.0 0
M  V30 22 C 18.2578 -0.6101 0.0 0
M  V30 23 C 17.0443 1.4917 0.0 0
M  V30 24 C 1.299 0.0 0.0 0
M  V30 25 C 19.2615 0.5046 0.0 0
M  V30 26 C 18.5115 1.8036 0.0 0
M  V30 27 N 0.0 -0.75 0.0 0
M  V30 28 C -1.299 0.0 0.0 0
M  V30 29 C 0.0 -2.25 0.0 0
M  V30 30 C -2.598 -0.75 0.0 0
M  V30 31 C -1.299 -3.0 0.0 0
M  V30 32 C -2.598 -2.25 0.0 0
M  V30 33 F -4.098 -2.2499 0.0 0
M  V30 34 F -3.348 -3.549 0.0 0
M  V30 END ATOM
M  V30 BEGIN BOND
M  V30 1 1 1 2
M  V30 2 2 2 3
M  V30 3 1 2 4
M  V30 4 1 3 5
M  V30 5 2 4 6
M  V30 6 1 5 7
M  V30 7 2 5 8
M  V30 8 2 7 9
M  V30 9 1 8 10
M  V30 10 1 8 11
M  V30 11 1 9 12
M  V30 12 2 10 13
M  V30 13 1 10 14
M  V30 14 1 12 15
M  V30 15 1 14 16
M  V30 16 1 15 17
M  V30 17 1 16 18
M  V30 18 1 17 19
M  V30 19 1 18 20
M  V30 20 1 19 21
M  V30 21 1 20 22
M  V30 22 1 20 23
M  V30 23 1 21 24
M  V30 24 1 22 25
M  V30 25 1 23 26
M  V30 26 1 24 27
M  V30 27 1 27 28
M  V30 28 1 27 29
M  V30 29 1 28 30
M  V30 30 1 29 31
M  V30 31 1 30 32
M  V30 32 1 32 33
M  V30 33 1 32 34
M  V30 34 1 6 7
M  V30 35 2 11 12
M  V30 36 1 25 26
M  V30 37 1 31 32
M  V30 END BOND
M  V30 END CTAB
M  END
>  <Rack>
PathogenBox_PlateE

>  <Position>
D04

>  <Compound ID>
MMV667494

>  <Disease Set>
MALARIA

>  <Trivial Name>


>  <Total Molecular Weight>
494.03

>  <Molecular Weight Parent Molecule>
494.03

>  <Molecular Formula>
C25H34N5OClF2

>  <Salt Name>


>  <Salt Coefficient>


>  <cLogP>
4.39

>  <SMILES>
FC1(F)CCN(CCCCNc2cc(c3cc(ccc3n2)Cl)C(=O)NCCN2CCCC2)CC1

$$$$
Compound 354
Actelion Java MolfileCreator 2.0

  0  0  0  0  0  0              0 V3000
M  V30 BEGIN CTAB
M  V30 COUNTS 25 28 0 0 0
M  V30 BEGIN ATOM
M  V30 1 O 3.8971 0.0 0.0 0
M  V30 2 C 2.598 -0.75 0.0 0
M  V30 3 C 1.299 0.0 0.0 0
M  V30 4 C 0.0 -0.75 0.0 0
M  V30 5 C -1.299 0.0 0.0 0
M  V30 6 C 0.0 -2.2499 0.0 0
M  V30 7 C -2.598 -0.7499 0.0 0
M  V30 8 C -1.299 -2.9999 0.0 0
M  V30 9 C -2.598 -2.2499 0.0 0
M  V30 10 N -3.8971 -2.9999 0.0 0
M  V30 11 C -3.8971 -4.4999 0.0 0
M  V30 12 N -5.1961 -5.2499 0.0 0
M  V30 13 N -2.598 -5.2499 0.0 0
M  V30 14 C -5.1961 -6.7499 0.0 0
M  V30 15 C -2.598 -6.7499 0.0 0
M  V30 16 C -6.4951 -7.4999 0.0 0
M  V30 17 C -3.8971 -7.4999 0.0 0
M  V30 18 N -7.8655 -6.8898 0.0 0
M  V30 19 N -6.6519 -8.9917 0.0 0
M  V30 20 N -8.8692 -8.0046 0.0 0
M  V30 21 C -8.1192 -9.3036 0.0 0
M  V30 22 C -5.6482 -10.1065 0.0 0
M  V30 23 C -8.5827 -10.7302 0.0 0
M  V30 24 C -6.1118 -11.533 0.0 0
M  V30 25 C -7.579 -11.8449 0.0 0
M  V30 END ATOM
M  V30 BEGIN BOND
M  V30 1 1 1 2
M  V30 2 1 2 3
M  V30 3 1 3 4
M  V30 4 2 4 5
M  V30 5 1 4 6
M  V30 6 1 5 7
M  V30 7 2 6 8
M  V30 8 2 7 9
M  V30 9 1 9 10
M  V30 10 1 10 11
M  V30 11 2 11 12
M  V30 12 1 11 13
M  V30 13 1 12 14
M  V30 14 2 13 15
M  V30 15 1 14 16
M  V30 16 2 14 17
M  V30 17 2 16 18
M  V30 18 1 16 19
M  V30 19 1 18 20
M  V30 20 1 19 21
M  V30 21 1 19 22
M  V30 22 1 21 23
M  V30 23 2 22 24
M  V30 24 2 23 25
M  V30 25 1 8 9
M  V30 26 1 15 17
M  V30 27 2 20 21
M  V30 28 1 24 25
M  V30 END BOND
M  V30 END CTAB
M  END
>  <Rack>
PathogenBox_PlateE

>  <Position>
D05

>  <Compound ID>
MMV028694

>  <Disease Set>
MALARIA

>  <Trivial Name>


>  <Total Molecular Weight>
332.37

>  <Molecular Weight Parent Molecule>
332.37

>  <Molecular Formula>
C18H16N6O

>  <Salt Name>


>  <Salt Coefficient>


>  <cLogP>
2.12

>  <SMILES>
OCCc1ccc(Nc2nccc(n2)c3nnc4ccccn34)cc1

$$$$
Compound 355
Actelion Java MolfileCreator 2.0

  0  0  0  0  0  0              0 V3000
M  V30 BEGIN CTAB
M  V30 COUNTS 19 20 0 0 0
M  V30 BEGIN ATOM
M  V30 1 S 6.4952 1.5 0.0 0
M  V30 2 O 7.9951 1.4999 0.0 0
M  V30 3 O 7.2451 2.799 0.0 0
M  V30 4 C 5.1961 2.25 0.0 0
M  V30 5 C 6.4952 0.0 0.0 0
M  V30 6 C 3.8971 1.5 0.0 0 CFG=1
M  V30 7 C 5.1961 -0.75 0.0 0
M  V30 8 N 3.8971 0.0 0.0 0
M  V30 9 C 2.598 2.25 0.0 0
M  V30 10 N 2.598 -0.75 0.0 0
M  V30 11 C 1.299 0.0 0.0 0
M  V30 12 C 0.0 -0.75 0.0 0
M  V30 13 O -1.3703 -0.1398 0.0 0
M  V30 14 C -0.1567 -2.2417 0.0 0
M  V30 15 C -2.374 -1.2546 0.0 0
M  V30 16 C -1.624 -2.5536 0.0 0
M  V30 17 N -3.8658 -1.0978 0.0 0 CHG=1
M  V30 18 O -4.4759 0.2724 0.0 0
M  V30 19 O -4.7474 -2.3113 0.0 0 CHG=-1
M  V30 END ATOM
M  V30 BEGIN BOND
M  V30 1 2 1 2
M  V30 2 2 1 3
M  V30 3 1 1 4
M  V30 4 1 1 5
M  V30 5 1 6 4
M  V30 6 1 5 7
M  V30 7 1 6 8
M  V30 8 1 6 9 CFG=1
M  V30 9 1 8 10
M  V30 10 2 10 11
M  V30 11 1 11 12
M  V30 12 1 12 13
M  V30 13 2 12 14
M  V30 14 1 13 15
M  V30 15 1 14 16
M  V30 16 1 15 17
M  V30 17 2 17 18
M  V30 18 1 17 19
M  V30 19 1 7 8
M  V30 20 2 15 16
M  V30 END BOND
M  V30 BEGIN COLLECTION
M  V30 MDLV30/STERAC1 ATOMS=(1 6)
M  V30 END COLLECTION
M  V30 END CTAB
M  END
>  <Rack>
PathogenBox_PlateE

>  <Position>
D06

>  <Compound ID>
MMV001499

>  <Disease Set>
REFERENCE COMPOUNDS

>  <Trivial Name>
Nifurtimox

>  <Total Molecular Weight>
287.29

>  <Molecular Weight Parent Molecule>
287.29

>  <Molecular Formula>
C10H13N3O5S

>  <Salt Name>


>  <Salt Coefficient>


>  <cLogP>
-0.25

>  <SMILES>
CC1CS(=O)(=O)CCN1\N=C\c2oc(cc2)[N+](=O)[O-]

$$$$
Compound 356
Actelion Java MolfileCreator 2.0

  0  0  0  0  0  0              0 V3000
M  V30 BEGIN CTAB
M  V30 COUNTS 22 25 0 0 0
M  V30 BEGIN ATOM
M  V30 1 S 2.8059 -2.9781 0.0 0
M  V30 2 C 3.8005 -3.0826 0.0 0
M  V30 3 C 2.598 -1.9999 0.0 0
M  V30 4 N 4.3882 -3.8916 0.0 0
M  V30 5 C 4.2072 -2.1691 0.0 0
M  V30 6 C 3.4641 -1.4999 0.0 0
M  V30 7 C 1.732 -1.5 0.0 0
M  V30 8 C 5.3828 -3.7871 0.0 0
M  V30 9 C 5.2017 -2.0646 0.0 0
M  V30 10 C 3.4641 -0.4999 0.0 0
M  V30 11 N 1.732 -0.5 0.0 0
M  V30 12 N 5.7895 -2.8736 0.0 0
M  V30 13 N 5.9706 -4.5961 0.0 0
M  V30 14 N 5.6085 -1.151 0.0 0
M  V30 15 C 2.598 0.0 0.0 0
M  V30 16 C 0.866 0.0 0.0 0
M  V30 17 C 0.0 -0.5 0.0 0
M  V30 18 C -0.866 0.0 0.0 0
M  V30 19 C 0.0 -1.4999 0.0 0
M  V30 20 C -1.732 -0.4999 0.0 0
M  V30 21 C -0.866 -1.9999 0.0 0
M  V30 22 C -1.732 -1.4999 0.0 0
M  V30 END ATOM
M  V30 BEGIN BOND
M  V30 1 1 1 2
M  V30 2 1 1 3
M  V30 3 2 2 4
M  V30 4 1 2 5
M  V30 5 2 3 6
M  V30 6 1 3 7
M  V30 7 1 4 8
M  V30 8 2 5 9
M  V30 9 1 6 10
M  V30 10 1 7 11
M  V30 11 2 8 12
M  V30 12 1 8 13
M  V30 13 1 9 14
M  V30 14 1 10 15
M  V30 15 1 11 16
M  V30 16 1 16 17
M  V30 17 2 17 18
M  V30 18 1 17 19
M  V30 19 1 18 20
M  V30 20 2 19 21
M  V30 21 2 20 22
M  V30 22 1 5 6
M  V30 23 1 9 12
M  V30 24 1 11 15
M  V30 25 1 21 22
M  V30 END BOND
M  V30 END CTAB
M  END
>  <Rack>
PathogenBox_PlateE

>  <Position>
D07

>  <Compound ID>
MMV688345

>  <Disease Set>
TOXOPLASMOSIS

>  <Trivial Name>


>  <Total Molecular Weight>
311.40

>  <Molecular Weight Parent Molecule>
311.40

>  <Molecular Formula>
C16H17N5S

>  <Salt Name>


>  <Salt Coefficient>


>  <cLogP>
1.72

>  <SMILES>
Nc1nc(N)c2c3CCN(Cc4ccccc4)Cc3sc2n1

$$$$
Compound 357
Actelion Java MolfileCreator 2.0

  0  0  0  0  0  0              0 V3000
M  V30 BEGIN CTAB
M  V30 COUNTS 29 32 0 0 0
M  V30 BEGIN ATOM
M  V30 1 S 5.1961 1.5 0.0 0
M  V30 2 O 5.6961 0.6339 0.0 0
M  V30 3 O 4.6961 2.366 0.0 0
M  V30 4 N 6.0621 2.0 0.0 0
M  V30 5 C 4.3301 1.0 0.0 0
M  V30 6 C 3.4641 1.5 0.0 0
M  V30 7 C 4.3301 0.0 0.0 0
M  V30 8 C 2.598 0.9999 0.0 0
M  V30 9 C 3.4641 -0.4999 0.0 0
M  V30 10 C 2.598 0.0 0.0 0
M  V30 11 C 1.732 -0.5 0.0 0
M  V30 12 N 0.866 0.0 0.0 0
M  V30 13 C 0.0 -0.5 0.0 0
M  V30 14 N 0.0 -1.4999 0.0 0
M  V30 15 C -0.866 0.0 0.0 0
M  V30 16 N -0.866 -1.9999 0.0 0
M  V30 17 C -1.732 -0.4999 0.0 0
M  V30 18 C -1.732 -1.4999 0.0 0
M  V30 19 C -1.0739 -2.9781 0.0 0
M  V30 20 N -2.4751 -2.1691 0.0 0
M  V30 21 C -0.4048 -3.7212 0.0 0
M  V30 22 C -2.0684 -3.0826 0.0 0
M  V30 23 C -0.7138 -4.6723 0.0 0
M  V30 24 C 0.5733 -3.5133 0.0 0
M  V30 25 N -0.0446 -5.4154 0.0 0
M  V30 26 C 1.2424 -4.2565 0.0 0
M  V30 27 C 0.9334 -5.2075 0.0 0
M  V30 28 O 1.6025 -5.9507 0.0 0
M  V30 29 C 2.5807 -5.7428 0.0 0
M  V30 END ATOM
M  V30 BEGIN BOND
M  V30 1 2 1 2
M  V30 2 2 1 3
M  V30 3 1 1 4
M  V30 4 1 1 5
M  V30 5 2 5 6
M  V30 6 1 5 7
M  V30 7 1 6 8
M  V30 8 2 7 9
M  V30 9 2 8 10
M  V30 10 1 10 11
M  V30 11 1 11 12
M  V30 12 1 12 13
M  V30 13 2 13 14
M  V30 14 1 13 15
M  V30 15 1 14 16
M  V30 16 2 15 17
M  V30 17 1 16 18
M  V30 18 1 16 19
M  V30 19 2 18 20
M  V30 20 1 19 21
M  V30 21 2 19 22
M  V30 22 2 21 23
M  V30 23 1 21 24
M  V30 24 1 23 25
M  V30 25 2 24 26
M  V30 26 2 25 27
M  V30 27 1 27 28
M  V30 28 1 28 29
M  V30 29 1 9 10
M  V30 30 1 17 18
M  V30 31 1 20 22
M  V30 32 1 26 27
M  V30 END BOND
M  V30 END CTAB
M  END
>  <Rack>
PathogenBox_PlateE

>  <Position>
D08

>  <Compound ID>
MMV010545

>  <Disease Set>
MALARIA

>  <Trivial Name>


>  <Total Molecular Weight>
410.46

>  <Molecular Weight Parent Molecule>
410.46

>  <Molecular Formula>
C19H18N6O3S

>  <Salt Name>


>  <Salt Coefficient>


>  <cLogP>
0.77

>  <SMILES>
COc1ccc(cn1)c2cnc3ccc(NCc4ccc(cc4)S(=O)(=O)N)nn23

$$$$
Compound 358
Actelion Java MolfileCreator 2.0

  0  0  0  0  0  0              0 V3000
M  V30 BEGIN CTAB
M  V30 COUNTS 21 23 0 0 0
M  V30 BEGIN ATOM
M  V30 1 N 2.655 3.0877 0.0 0
M  V30 2 C 3.4641 2.5 0.0 0
M  V30 3 C 2.9641 4.0388 0.0 0
M  V30 4 N 4.2731 3.0877 0.0 0
M  V30 5 C 3.4641 1.5 0.0 0
M  V30 6 C 3.9641 4.0388 0.0 0
M  V30 7 C 2.3763 4.8478 0.0 0
M  V30 8 C 2.598 1.0 0.0 0
M  V30 9 C 4.3301 1.0 0.0 0
M  V30 10 C 4.5518 4.8478 0.0 0
M  V30 11 C 2.598 0.0 0.0 0
M  V30 12 C 4.3301 0.0 0.0 0
M  V30 13 N 1.732 -0.5 0.0 0
M  V30 14 C 3.4641 -0.4999 0.0 0
M  V30 15 C 0.866 0.0 0.0 0
M  V30 16 C 0.0 -0.5 0.0 0
M  V30 17 C -0.866 0.0 0.0 0
M  V30 18 C 0.0 -1.4999 0.0 0
M  V30 19 C -1.732 -0.4999 0.0 0
M  V30 20 C -0.866 -1.9999 0.0 0
M  V30 21 C -1.732 -1.4999 0.0 0
M  V30 END ATOM
M  V30 BEGIN BOND
M  V30 1 2 1 2
M  V30 2 1 1 3
M  V30 3 1 2 4
M  V30 4 1 2 5
M  V30 5 2 3 6
M  V30 6 1 3 7
M  V30 7 2 5 8
M  V30 8 1 5 9
M  V30 9 1 6 10
M  V30 10 1 8 11
M  V30 11 2 9 12
M  V30 12 1 11 13
M  V30 13 2 11 14
M  V30 14 1 13 15
M  V30 15 1 15 16
M  V30 16 2 16 17
M  V30 17 1 16 18
M  V30 18 1 17 19
M  V30 19 2 18 20
M  V30 20 2 19 21
M  V30 21 1 4 6
M  V30 22 1 12 14
M  V30 23 1 20 21
M  V30 END BOND
M  V30 END CTAB
M  END
>  <Rack>
PathogenBox_PlateE

>  <Position>
D09

>  <Compound ID>
MMV023227

>  <Disease Set>
MALARIA

>  <Trivial Name>


>  <Total Molecular Weight>
277.37

>  <Molecular Weight Parent Molecule>
277.37

>  <Molecular Formula>
C18H19N3

>  <Salt Name>


>  <Salt Coefficient>


>  <cLogP>
3.32

>  <SMILES>
Cc1nc([nH]c1C)c2cccc(NCc3ccccc3)c2

$$$$
Compound 359
Actelion Java MolfileCreator 2.0

  0  0  0  0  0  0              0 V3000
M  V30 BEGIN CTAB
M  V30 COUNTS 32 35 0 0 0
M  V30 BEGIN ATOM
M  V30 1 S 3.8971 0.0 0.0 0
M  V30 2 O 4.6471 1.299 0.0 0
M  V30 3 O 3.1471 1.299 0.0 0
M  V30 4 O 5.1961 -0.75 0.0 0
M  V30 5 N 2.598 -0.75 0.0 0
M  V30 6 C 6.4951 0.0 0.0 0
M  V30 7 C 1.299 0.0 0.0 0
M  V30 8 C 7.7942 -0.75 0.0 0 CFG=1
M  V30 9 O 1.299 1.5 0.0 0
M  V30 10 C 0.0 -0.75 0.0 0
M  V30 11 O 7.951 -2.2417 0.0 0
M  V30 12 C 9.1645 -0.1398 0.0 0 CFG=1
M  V30 13 C -1.299 0.0 0.0 0
M  V30 14 C 0.0 -2.25 0.0 0
M  V30 15 C 9.4182 -2.5536 0.0 0 CFG=2
M  V30 16 O 9.4764 1.3273 0.0 0
M  V30 17 C 10.1682 -1.2546 0.0 0 CFG=2
M  V30 18 O -1.299 1.5 0.0 0
M  V30 19 C -2.598 -0.75 0.0 0
M  V30 20 C -1.299 -3.0 0.0 0
M  V30 21 N 10.0283 -3.9239 0.0 0
M  V30 22 O 11.66 -1.0978 0.0 0
M  V30 23 C -2.598 -2.25 0.0 0
M  V30 24 C 9.2783 -5.223 0.0 0
M  V30 25 C 11.4955 -4.2358 0.0 0
M  V30 26 N 7.8111 -5.5348 0.0 0
M  V30 27 C 10.282 -6.3377 0.0 0
M  V30 28 N 11.6523 -5.7276 0.0 0
M  V30 29 C 7.3476 -6.9614 0.0 0
M  V30 30 C 9.8185 -7.7643 0.0 0
M  V30 31 N 8.3513 -8.0761 0.0 0
M  V30 32 N 10.8222 -8.879 0.0 0
M  V30 END ATOM
M  V30 BEGIN BOND
M  V30 1 2 1 2
M  V30 2 2 1 3
M  V30 3 1 1 4
M  V30 4 1 1 5
M  V30 5 1 4 6
M  V30 6 1 5 7
M  V30 7 1 8 6 CFG=3
M  V30 8 2 7 9
M  V30 9 1 7 10
M  V30 10 1 8 11
M  V30 11 1 12 8
M  V30 12 2 10 13
M  V30 13 1 10 14
M  V30 14 1 15 11
M  V30 15 1 12 16 CFG=1
M  V30 16 1 17 12
M  V30 17 1 13 18
M  V30 18 1 13 19
M  V30 19 2 14 20
M  V30 20 1 15 21 CFG=3
M  V30 21 1 17 22 CFG=1
M  V30 22 2 19 23
M  V30 23 1 21 24
M  V30 24 1 21 25
M  V30 25 2 24 26
M  V30 26 1 24 27
M  V30 27 2 25 28
M  V30 28 1 26 29
M  V30 29 2 27 30
M  V30 30 2 29 31
M  V30 31 1 30 32
M  V30 32 1 15 17
M  V30 33 1 20 23
M  V30 34 1 27 28
M  V30 35 1 30 31
M  V30 END BOND
M  V30 BEGIN COLLECTION
M  V30 MDLV30/STEABS ATOMS=(4 8 12 15 17)
M  V30 END COLLECTION
M  V30 END CTAB
M  END
>  <Rack>
PathogenBox_PlateE

>  <Position>
D10

>  <Compound ID>
MMV687700

>  <Disease Set>
TUBERCULOSIS

>  <Trivial Name>


>  <Total Molecular Weight>
584.51

>  <Molecular Weight Parent Molecule>
466.43

>  <Molecular Formula>
C17H18N6O8S

>  <Salt Name>
Acetate

>  <Salt Coefficient>
2

>  <cLogP>
-0.84

>  <SMILES>
Nc1ncnc2c1ncn2[C@@H]3O[C@H](COS(=O)(=O)NC(=O)c4ccccc4O)[C@@H](O)[C@H]3O

$$$$
Compound 360
Actelion Java MolfileCreator 2.0

  0  0  0  0  0  0              0 V3000
M  V30 BEGIN CTAB
M  V30 COUNTS 23 25 0 0 0
M  V30 BEGIN ATOM
M  V30 1 F 5.8602 0.9906 0.0 0
M  V30 2 C 6.448 0.1816 0.0 0
M  V30 3 C 6.0412 -0.7318 0.0 0
M  V30 4 C 7.4425 0.2861 0.0 0
M  V30 5 C 5.0467 -0.8364 0.0 0
M  V30 6 C 6.629 -1.5408 0.0 0
M  V30 7 C 8.0303 -0.5228 0.0 0
M  V30 8 O 4.3776 -0.0932 0.0 0
M  V30 9 N 4.5467 -1.7024 0.0 0
M  V30 10 C 7.6236 -1.4363 0.0 0
M  V30 11 C 3.4641 -0.5 0.0 0
M  V30 12 C 3.5686 -1.4945 0.0 0
M  V30 13 N 2.598 0.0 0.0 0
M  V30 14 C 2.8254 -2.1636 0.0 0
M  V30 15 C 1.732 -0.5 0.0 0
M  V30 16 N 2.0823 -2.8327 0.0 0
M  V30 17 C 0.866 0.0 0.0 0
M  V30 18 C 0.0 -0.5 0.0 0
M  V30 19 C -0.866 0.0 0.0 0
M  V30 20 C 0.0 -1.4999 0.0 0
M  V30 21 C -1.732 -0.4999 0.0 0
M  V30 22 C -0.866 -1.9999 0.0 0
M  V30 23 C -1.732 -1.4999 0.0 0
M  V30 END ATOM
M  V30 BEGIN BOND
M  V30 1 1 1 2
M  V30 2 2 2 3
M  V30 3 1 2 4
M  V30 4 1 3 5
M  V30 5 1 3 6
M  V30 6 2 4 7
M  V30 7 1 5 8
M  V30 8 2 5 9
M  V30 9 2 6 10
M  V30 10 1 8 11
M  V30 11 1 9 12
M  V30 12 1 11 13
M  V30 13 1 12 14
M  V30 14 1 13 15
M  V30 15 3 14 16
M  V30 16 1 15 17
M  V30 17 1 17 18
M  V30 18 2 18 19
M  V30 19 1 18 20
M  V30 20 1 19 21
M  V30 21 2 20 22
M  V30 22 2 21 23
M  V30 23 1 7 10
M  V30 24 2 11 12
M  V30 25 1 22 23
M  V30 END BOND
M  V30 END CTAB
M  END
>  <Rack>
PathogenBox_PlateE

>  <Position>
D11

>  <Compound ID>
MMV676384

>  <Disease Set>
TUBERCULOSIS

>  <Trivial Name>


>  <Total Molecular Weight>
307.32

>  <Molecular Weight Parent Molecule>
307.32

>  <Molecular Formula>
C18H14N3OF

>  <Salt Name>


>  <Salt Coefficient>


>  <cLogP>
3.71

>  <SMILES>
Fc1ccccc1c2oc(NCCc3ccccc3)c(n2)C#N

$$$$
Compound 361
Actelion Java MolfileCreator 2.0

  0  0  0  0  0  0              0 V3000
M  V30 BEGIN CTAB
M  V30 COUNTS 25 26 0 0 0
M  V30 BEGIN ATOM
M  V30 1 S 2.598 -0.75 0.0 0
M  V30 2 O 1.0981 -0.75 0.0 0
M  V30 3 O 1.8481 0.549 0.0 0
M  V30 4 N 2.598 -2.25 0.0 0
M  V30 5 C 3.8971 0.0 0.0 0
M  V30 6 C 1.299 -3.0 0.0 0
M  V30 7 C 5.1961 -0.75 0.0 0
M  V30 8 C 3.8971 1.5 0.0 0
M  V30 9 C 0.549 -1.7009 0.0 0
M  V30 10 C 0.0 -3.75 0.0 0
M  V30 11 C 2.049 -4.299 0.0 0
M  V30 12 C 6.4952 0.0 0.0 0
M  V30 13 C 5.1961 2.25 0.0 0
M  V30 14 C 6.4952 1.5 0.0 0
M  V30 15 C 7.7942 -0.75 0.0 0
M  V30 16 C 7.7942 2.25 0.0 0
M  V30 17 O 9.0932 0.0 0.0 0
M  V30 18 N 7.7942 -2.25 0.0 0
M  V30 19 C 9.0932 -3.0 0.0 0
M  V30 20 N 9.0932 -4.5 0.0 0
M  V30 21 C 10.3923 -2.25 0.0 0
M  V30 22 C 10.3923 -5.25 0.0 0
M  V30 23 C 11.6913 -3.0 0.0 0
M  V30 24 C 11.6913 -4.5 0.0 0
M  V30 25 C 12.9904 -5.25 0.0 0
M  V30 END ATOM
M  V30 BEGIN BOND
M  V30 1 2 1 2
M  V30 2 2 1 3
M  V30 3 1 1 4
M  V30 4 1 1 5
M  V30 5 1 4 6
M  V30 6 2 5 7
M  V30 7 1 5 8
M  V30 8 1 6 9
M  V30 9 1 6 10
M  V30 10 1 6 11
M  V30 11 1 7 12
M  V30 12 2 8 13
M  V30 13 2 12 14
M  V30 14 1 12 15
M  V30 15 1 14 16
M  V30 16 2 15 17
M  V30 17 1 15 18
M  V30 18 1 18 19
M  V30 19 2 19 20
M  V30 20 1 19 21
M  V30 21 1 20 22
M  V30 22 2 21 23
M  V30 23 2 22 24
M  V30 24 1 24 25
M  V30 25 1 13 14
M  V30 26 1 23 24
M  V30 END BOND
M  V30 END CTAB
M  END
>  <Rack>
PathogenBox_PlateE

>  <Position>
E02

>  <Compound ID>
MMV020289

>  <Disease Set>
MALARIA

>  <Trivial Name>


>  <Total Molecular Weight>
361.46

>  <Molecular Weight Parent Molecule>
361.46

>  <Molecular Formula>
C18H23N3O3S

>  <Salt Name>


>  <Salt Coefficient>


>  <cLogP>
3.12

>  <SMILES>
Cc1ccc(NC(=O)c2cc(ccc2C)S(=O)(=O)NC(C)(C)C)nc1

$$$$
Compound 362
Actelion Java MolfileCreator 2.0

  0  0  0  0  0  0              0 V3000
M  V30 BEGIN CTAB
M  V30 COUNTS 14 14 0 0 0
M  V30 BEGIN ATOM
M  V30 1 O 3.4641 -0.5 0.0 0
M  V30 2 C 2.598 0.0 0.0 0
M  V30 3 N 2.598 1.0 0.0 0
M  V30 4 N 1.732 -0.5 0.0 0
M  V30 5 C 3.4641 1.5 0.0 0
M  V30 6 C 1.732 1.4999 0.0 0
M  V30 7 C 1.732 -1.5 0.0 0
M  V30 8 C 0.866 0.0 0.0 0
M  V30 9 C 3.4641 2.5 0.0 0
M  V30 10 C 1.732 2.5 0.0 0
M  V30 11 C 2.598 -1.9999 0.0 0
M  V30 12 C 0.0 -0.5 0.0 0
M  V30 13 N 2.598 3.0 0.0 0
M  V30 14 C 2.598 4.0 0.0 0
M  V30 END ATOM
M  V30 BEGIN BOND
M  V30 1 2 1 2
M  V30 2 1 2 3
M  V30 3 1 2 4
M  V30 4 1 3 5
M  V30 5 1 3 6
M  V30 6 1 4 7
M  V30 7 1 4 8
M  V30 8 1 5 9
M  V30 9 1 6 10
M  V30 10 1 7 11
M  V30 11 1 8 12
M  V30 12 1 9 13
M  V30 13 1 13 14
M  V30 14 1 10 13
M  V30 END BOND
M  V30 END CTAB
M  END
>  <Rack>
PathogenBox_PlateE

>  <Position>
E03

>  <Compound ID>
MMV002816

>  <Disease Set>
REFERENCE COMPOUNDS

>  <Trivial Name>
Diethylcarbamazine

>  <Total Molecular Weight>
199.30

>  <Molecular Weight Parent Molecule>
199.30

>  <Molecular Formula>
C10H21N3O

>  <Salt Name>


>  <Salt Coefficient>


>  <cLogP>
0.81

>  <SMILES>
CCN(CC)C(=O)N1CCN(C)CC1

$$$$
Compound 363
Actelion Java MolfileCreator 2.0

  0  0  0  0  0  0              0 V3000
M  V30 BEGIN CTAB
M  V30 COUNTS 30 33 0 0 0
M  V30 BEGIN ATOM
M  V30 1 Cl 2.598 2.9999 0.0 0
M  V30 2 C 3.4641 2.4999 0.0 0
M  V30 3 C 3.4641 1.4999 0.0 0
M  V30 4 C 4.3301 2.9999 0.0 0
M  V30 5 C 4.3301 0.9999 0.0 0
M  V30 6 C 5.1961 2.5 0.0 0
M  V30 7 C 5.1961 1.5 0.0 0
M  V30 8 C 4.3301 0.0 0.0 0
M  V30 9 N 6.0621 0.9999 0.0 0
M  V30 10 C 3.4641 -0.5 0.0 0
M  V30 11 C 5.1961 -0.4999 0.0 0
M  V30 12 C 6.0621 0.0 0.0 0
M  V30 13 O 3.4641 -1.5 0.0 0
M  V30 14 N 2.598 0.0 0.0 0
M  V30 15 N 6.9282 -0.4999 0.0 0
M  V30 16 C 1.732 -0.5 0.0 0
M  V30 17 C 7.7942 0.0 0.0 0
M  V30 18 C 0.866 0.0 0.0 0
M  V30 19 C 8.6602 -0.5 0.0 0
M  V30 20 N 0.0 -0.5 0.0 0
M  V30 21 N 9.5262 0.0 0.0 0
M  V30 22 C -0.9135 -0.0932 0.0 0
M  V30 23 C -0.1045 -1.4945 0.0 0
M  V30 24 C 10.3923 -0.5 0.0 0
M  V30 25 C 9.5262 0.9999 0.0 0
M  V30 26 C -1.5826 -0.8364 0.0 0
M  V30 27 C -1.0826 -1.7024 0.0 0
M  V30 28 C 11.2583 0.0 0.0 0
M  V30 29 C 10.3923 1.4999 0.0 0
M  V30 30 O 11.2583 0.9999 0.0 0
M  V30 END ATOM
M  V30 BEGIN BOND
M  V30 1 1 1 2
M  V30 2 2 2 3
M  V30 3 1 2 4
M  V30 4 1 3 5
M  V30 5 2 4 6
M  V30 6 1 5 7
M  V30 7 2 5 8
M  V30 8 2 7 9
M  V30 9 1 8 10
M  V30 10 1 8 11
M  V30 11 1 9 12
M  V30 12 2 10 13
M  V30 13 1 10 14
M  V30 14 1 12 15
M  V30 15 1 14 16
M  V30 16 1 15 17
M  V30 17 1 16 18
M  V30 18 1 17 19
M  V30 19 1 18 20
M  V30 20 1 19 21
M  V30 21 1 20 22
M  V30 22 1 20 23
M  V30 23 1 21 24
M  V30 24 1 21 25
M  V30 25 1 22 26
M  V30 26 1 23 27
M  V30 27 1 24 28
M  V30 28 1 25 29
M  V30 29 1 28 30
M  V30 30 1 6 7
M  V30 31 2 11 12
M  V30 32 1 26 27
M  V30 33 1 29 30
M  V30 END BOND
M  V30 END CTAB
M  END
>  <Rack>
PathogenBox_PlateE

>  <Position>
E04

>  <Compound ID>
MMV634140

>  <Disease Set>
MALARIA

>  <Trivial Name>


>  <Total Molecular Weight>
431.97

>  <Molecular Weight Parent Molecule>
431.97

>  <Molecular Formula>
C22H30N5O2Cl

>  <Salt Name>


>  <Salt Coefficient>


>  <cLogP>
2.18

>  <SMILES>
Clc1ccc2nc(cc(c2c1)C(=O)NCCN1CCCC1)NCCN1CCOCC1

$$$$
Compound 364
Actelion Java MolfileCreator 2.0

  0  0  0  0  0  0              0 V3000
M  V30 BEGIN CTAB
M  V30 COUNTS 25 27 0 0 0
M  V30 BEGIN ATOM
M  V30 1 Cl 7.9615 7.2849 0.0 0
M  V30 2 C 7.3514 5.9146 0.0 0
M  V30 3 C 5.8596 5.7578 0.0 0
M  V30 4 C 8.2331 4.701 0.0 0
M  V30 5 O 4.9779 6.9713 0.0 0
M  V30 6 C 5.2495 4.3875 0.0 0
M  V30 7 C 7.623 3.3307 0.0 0
M  V30 8 C 6.1312 3.1739 0.0 0
M  V30 9 C 5.5211 1.8036 0.0 0
M  V30 10 N 4.0539 1.4917 0.0 0
M  V30 11 C 6.2711 0.5046 0.0 0
M  V30 12 C 3.8971 0.0 0.0 0
M  V30 13 N 5.2674 -0.6101 0.0 0
M  V30 14 C 7.7629 0.3478 0.0 0
M  V30 15 C 2.598 -0.75 0.0 0
M  V30 16 N 8.373 -1.0225 0.0 0
M  V30 17 C 8.6446 1.5613 0.0 0
M  V30 18 C 1.299 0.0 0.0 0
M  V30 19 C 1.848 -2.049 0.0 0
M  V30 20 C 3.348 -2.049 0.0 0
M  V30 21 C 9.8648 -1.1792 0.0 0
M  V30 22 C 10.1363 1.4045 0.0 0
M  V30 23 N 0.0 -0.75 0.0 0
M  V30 24 N 10.7464 0.0342 0.0 0
M  V30 25 N 10.4749 -2.5496 0.0 0
M  V30 END ATOM
M  V30 BEGIN BOND
M  V30 1 1 1 2
M  V30 2 2 2 3
M  V30 3 1 2 4
M  V30 4 1 3 5
M  V30 5 1 3 6
M  V30 6 2 4 7
M  V30 7 2 6 8
M  V30 8 1 8 9
M  V30 9 1 9 10
M  V30 10 2 9 11
M  V30 11 2 10 12
M  V30 12 1 11 13
M  V30 13 1 11 14
M  V30 14 1 12 15
M  V30 15 2 14 16
M  V30 16 1 14 17
M  V30 17 1 15 18
M  V30 18 1 15 19
M  V30 19 1 15 20
M  V30 20 1 16 21
M  V30 21 2 17 22
M  V30 22 1 18 23
M  V30 23 2 21 24
M  V30 24 1 21 25
M  V30 25 1 7 8
M  V30 26 1 12 13
M  V30 27 1 22 24
M  V30 END BOND
M  V30 END CTAB
M  END
>  <Rack>
PathogenBox_PlateE

>  <Position>
E05

>  <Compound ID>
MMV030734

>  <Disease Set>
MALARIA

>  <Trivial Name>


>  <Total Molecular Weight>
584.86

>  <Molecular Weight Parent Molecule>
358.83

>  <Molecular Formula>
C17H19N6OCl

>  <Salt Name>
Trifluoroacetate

>  <Salt Coefficient>
2

>  <cLogP>
1.95

>  <SMILES>
CC(C)(CN)c1nc(c2ccc(Cl)c(O)c2)c([nH]1)c3ccnc(N)n3

$$$$
Compound 365
Actelion Java MolfileCreator 2.0

  0  0  0  0  0  0              0 V3000
M  V30 BEGIN CTAB
M  V30 COUNTS 33 36 0 0 0
M  V30 BEGIN ATOM
M  V30 1 F 7.4282 -2.6339 0.0 0
M  V30 2 C 6.9282 -3.5 0.0 0
M  V30 3 F 7.7942 -4.0 0.0 0
M  V30 4 F 6.4282 -4.366 0.0 0
M  V30 5 C 6.0621 -3.0 0.0 0
M  V30 6 C 6.0621 -2.0 0.0 0
M  V30 7 C 5.1961 -3.4999 0.0 0
M  V30 8 N 5.1961 -1.5 0.0 0
M  V30 9 C 4.3301 -2.9999 0.0 0
M  V30 10 C 4.3301 -2.0 0.0 0
M  V30 11 N 3.4641 -1.4999 0.0 0
M  V30 12 C 3.4641 -0.5 0.0 0
M  V30 13 C 2.598 -1.9999 0.0 0
M  V30 14 C 2.598 0.0 0.0 0
M  V30 15 C 1.732 -1.5 0.0 0
M  V30 16 C 1.732 -0.5 0.0 0
M  V30 17 N 0.866 0.0 0.0 0
M  V30 18 C 0.866 1.0 0.0 0
M  V30 19 C 0.0 -0.5 0.0 0
M  V30 20 C 1.732 1.4999 0.0 0
M  V30 21 C 0.0 1.4999 0.0 0
M  V30 22 C -0.866 0.0 0.0 0
M  V30 23 C 0.0 -1.4999 0.0 0
M  V30 24 N 1.732 2.5 0.0 0
M  V30 25 C 0.0 2.5 0.0 0
M  V30 26 C -1.732 -0.4999 0.0 0
M  V30 27 C -0.866 -1.9999 0.0 0
M  V30 28 C 0.866 3.0 0.0 0
M  V30 29 C -1.732 -1.4999 0.0 0
M  V30 30 C -2.598 -1.9999 0.0 0
M  V30 31 F -2.098 -2.866 0.0 0
M  V30 32 F -3.4641 -2.4999 0.0 0
M  V30 33 F -3.098 -1.1339 0.0 0
M  V30 END ATOM
M  V30 BEGIN BOND
M  V30 1 1 1 2
M  V30 2 1 2 3
M  V30 3 1 2 4
M  V30 4 1 2 5
M  V30 5 2 5 6
M  V30 6 1 5 7
M  V30 7 1 6 8
M  V30 8 2 7 9
M  V30 9 2 8 10
M  V30 10 1 10 11
M  V30 11 1 11 12
M  V30 12 1 11 13
M  V30 13 1 12 14
M  V30 14 1 13 15
M  V30 15 1 14 16
M  V30 16 1 16 17
M  V30 17 1 17 18
M  V30 18 1 17 19
M  V30 19 2 18 20
M  V30 20 1 18 21
M  V30 21 2 19 22
M  V30 22 1 19 23
M  V30 23 1 20 24
M  V30 24 2 21 25
M  V30 25 1 22 26
M  V30 26 2 23 27
M  V30 27 2 24 28
M  V30 28 2 26 29
M  V30 29 1 29 30
M  V30 30 1 30 31
M  V30 31 1 30 32
M  V30 32 1 30 33
M  V30 33 1 9 10
M  V30 34 1 15 16
M  V30 35 1 25 28
M  V30 36 1 27 29
M  V30 END BOND
M  V30 END CTAB
M  END
>  <Rack>
PathogenBox_PlateE

>  <Position>
E06

>  <Compound ID>
MMV689243

>  <Disease Set>
KINETOPLASTIDS

>  <Trivial Name>


>  <Total Molecular Weight>
466.42

>  <Molecular Weight Parent Molecule>
466.42

>  <Molecular Formula>
C23H20N4F6

>  <Salt Name>


>  <Salt Coefficient>


>  <cLogP>
4.26

>  <SMILES>
FC(F)(F)c1ccc(cc1)N(C2CCN(CC2)c3ccc(cn3)C(F)(F)F)c4cccnc4

$$$$
Compound 366
Actelion Java MolfileCreator 2.0

  0  0  0  0  0  0              0 V3000
M  V30 BEGIN CTAB
M  V30 COUNTS 18 20 0 0 0
M  V30 BEGIN ATOM
M  V30 1 Br 5.1961 -0.75 0.0 0
M  V30 2 C 3.8971 0.0 0.0 0
M  V30 3 C 3.8971 1.4999 0.0 0
M  V30 4 C 2.598 -0.75 0.0 0
M  V30 5 N 2.598 2.25 0.0 0
M  V30 6 C 1.299 0.0 0.0 0
M  V30 7 C 1.299 1.5 0.0 0
M  V30 8 C 0.0 -0.75 0.0 0
M  V30 9 N 0.0 2.25 0.0 0
M  V30 10 N -1.3703 -0.1398 0.0 0
M  V30 11 N -0.1567 -2.2417 0.0 0
M  V30 12 C -2.374 -1.2546 0.0 0
M  V30 13 C -1.624 -2.5536 0.0 0
M  V30 14 C -3.874 -1.2546 0.0 0
M  V30 15 N -2.374 -3.8526 0.0 0
M  V30 16 C -4.624 -2.5536 0.0 0
M  V30 17 C -3.874 -3.8526 0.0 0
M  V30 18 Cl -6.124 -2.5536 0.0 0
M  V30 END ATOM
M  V30 BEGIN BOND
M  V30 1 1 1 2
M  V30 2 2 2 3
M  V30 3 1 2 4
M  V30 4 1 3 5
M  V30 5 2 4 6
M  V30 6 2 5 7
M  V30 7 1 6 8
M  V30 8 1 7 9
M  V30 9 2 8 10
M  V30 10 1 8 11
M  V30 11 1 10 12
M  V30 12 1 11 13
M  V30 13 1 12 14
M  V30 14 1 13 15
M  V30 15 2 14 16
M  V30 16 2 15 17
M  V30 17 1 16 18
M  V30 18 1 6 7
M  V30 19 2 12 13
M  V30 20 1 16 17
M  V30 END BOND
M  V30 END CTAB
M  END
>  <Rack>
PathogenBox_PlateE

>  <Position>
E07

>  <Compound ID>
MMV676358

>  <Disease Set>
MALARIA

>  <Trivial Name>


>  <Total Molecular Weight>
324.56

>  <Molecular Weight Parent Molecule>
324.56

>  <Molecular Formula>
C11H7N5BrCl

>  <Salt Name>


>  <Salt Coefficient>


>  <cLogP>
2.19

>  <SMILES>
Nc1ncc(Br)cc1c2nc3cc(Cl)cnc3[nH]2

$$$$
Compound 367
Actelion Java MolfileCreator 2.0

  0  0  0  0  0  0              0 V3000
M  V30 BEGIN CTAB
M  V30 COUNTS 29 32 0 0 0
M  V30 BEGIN ATOM
M  V30 1 F 3.6789 -7.7213 0.0 0
M  V30 2 C 4.5606 -6.5078 0.0 0
M  V30 3 C 6.0524 -6.6646 0.0 0
M  V30 4 C 3.9505 -5.1374 0.0 0
M  V30 5 C 6.934 -5.451 0.0 0
M  V30 6 C 6.6625 -8.0349 0.0 0
M  V30 7 C 4.8321 -3.9239 0.0 0
M  V30 8 F 8.4258 -5.6078 0.0 0
M  V30 9 C 6.3239 -4.0807 0.0 0
M  V30 10 C 5.7808 -9.2484 0.0 0
M  V30 11 C 8.1542 -8.1917 0.0 0
M  V30 12 N 4.222 -2.5536 0.0 0
M  V30 13 C 6.3909 -10.6187 0.0 0
M  V30 14 C 8.7643 -9.562 0.0 0
M  V30 15 C 4.972 -1.2546 0.0 0
M  V30 16 C 2.7548 -2.2417 0.0 0
M  V30 17 N 7.8827 -10.7755 0.0 0
M  V30 18 O 6.4638 -1.0978 0.0 0
M  V30 19 O 3.9683 -0.1398 0.0 0
M  V30 20 C 2.598 -0.75 0.0 0 CFG=1
M  V30 21 C 8.4928 -12.1458 0.0 0
M  V30 22 C 1.299 0.0 0.0 0
M  V30 23 C 9.9846 -12.3026 0.0 0
M  V30 24 O 0.0 -0.75 0.0 0
M  V30 25 C 10.5947 -13.6729 0.0 0
M  V30 26 C 10.8662 -11.0891 0.0 0
M  V30 27 C 12.0864 -13.8297 0.0 0
M  V30 28 C 12.358 -11.2459 0.0 0
M  V30 29 C 12.9681 -12.6162 0.0 0
M  V30 END ATOM
M  V30 BEGIN BOND
M  V30 1 1 1 2
M  V30 2 2 2 3
M  V30 3 1 2 4
M  V30 4 1 3 5
M  V30 5 1 3 6
M  V30 6 2 4 7
M  V30 7 1 5 8
M  V30 8 2 5 9
M  V30 9 2 6 10
M  V30 10 1 6 11
M  V30 11 1 7 12
M  V30 12 1 10 13
M  V30 13 1 11 14
M  V30 14 1 12 15
M  V30 15 1 12 16
M  V30 16 1 13 17
M  V30 17 2 15 18
M  V30 18 1 15 19
M  V30 19 1 20 16
M  V30 20 1 17 21
M  V30 21 1 20 22 CFG=3
M  V30 22 1 21 23
M  V30 23 1 22 24
M  V30 24 2 23 25
M  V30 25 1 23 26
M  V30 26 1 25 27
M  V30 27 2 26 28
M  V30 28 2 27 29
M  V30 29 1 7 9
M  V30 30 1 14 17
M  V30 31 1 19 20
M  V30 32 1 28 29
M  V30 END BOND
M  V30 BEGIN COLLECTION
M  V30 MDLV30/STEABS ATOMS=(1 20)
M  V30 END COLLECTION
M  V30 END CTAB
M  END
>  <Rack>
PathogenBox_PlateE

>  <Position>
E08

>  <Compound ID>
MMV687729

>  <Disease Set>
TUBERCULOSIS

>  <Trivial Name>


>  <Total Molecular Weight>
400.42

>  <Molecular Weight Parent Molecule>
400.42

>  <Molecular Formula>
C22H22N2O3F2

>  <Salt Name>


>  <Salt Coefficient>


>  <cLogP>
2.68

>  <SMILES>
OC[C@H]1CN(C(=O)O1)c2cc(F)c(C3=CCN(Cc4ccccc4)CC3)c(F)c2

$$$$
Compound 368
Actelion Java MolfileCreator 2.0

  0  0  0  0  0  0              0 V3000
M  V30 BEGIN CTAB
M  V30 COUNTS 31 33 0 0 0
M  V30 BEGIN ATOM
M  V30 1 F 4.1961 2.5 0.0 0
M  V30 2 C 5.1961 2.4999 0.0 0
M  V30 3 F 5.1961 3.4999 0.0 0
M  V30 4 F 6.1961 2.4999 0.0 0
M  V30 5 C 5.1961 1.4999 0.0 0
M  V30 6 C 4.3301 1.0 0.0 0
M  V30 7 C 6.0621 0.9999 0.0 0
M  V30 8 C 4.3301 0.0 0.0 0
M  V30 9 C 6.0621 0.0 0.0 0
M  V30 10 N 3.4641 -0.5 0.0 0
M  V30 11 C 5.1961 -0.5 0.0 0
M  V30 12 C 2.598 0.0 0.0 0
M  V30 13 N 5.1961 -1.5 0.0 0
M  V30 14 O 2.598 1.0 0.0 0
M  V30 15 C 1.732 -0.5 0.0 0 CFG=1
M  V30 16 C 4.3301 -1.9999 0.0 0
M  V30 17 C 6.0621 -2.0 0.0 0
M  V30 18 N 0.866 0.0 0.0 0
M  V30 19 C 1.732 -1.5 0.0 0
M  V30 20 C 4.3301 -2.9999 0.0 0
M  V30 21 C 6.0621 -3.0 0.0 0
M  V30 22 C 0.0 -0.5 0.0 0
M  V30 23 O 5.1961 -3.5 0.0 0
M  V30 24 C -0.866 0.0 0.0 0
M  V30 25 C 0.0 -1.4999 0.0 0
M  V30 26 O -0.866 1.0 0.0 0
M  V30 27 C -1.732 -0.4999 0.0 0
M  V30 28 C -0.866 -1.9999 0.0 0
M  V30 29 C 0.0 1.5 0.0 0
M  V30 30 C -1.732 -1.4999 0.0 0
M  V30 31 C 0.0 2.5 0.0 0
M  V30 END ATOM
M  V30 BEGIN BOND
M  V30 1 1 1 2
M  V30 2 1 2 3
M  V30 3 1 2 4
M  V30 4 1 2 5
M  V30 5 2 5 6
M  V30 6 1 5 7
M  V30 7 1 6 8
M  V30 8 2 7 9
M  V30 9 1 8 10
M  V30 10 2 8 11
M  V30 11 1 10 12
M  V30 12 1 11 13
M  V30 13 2 12 14
M  V30 14 1 15 12
M  V30 15 1 13 16
M  V30 16 1 13 17
M  V30 17 1 15 18 CFG=3
M  V30 18 1 15 19
M  V30 19 1 16 20
M  V30 20 1 17 21
M  V30 21 1 18 22
M  V30 22 1 20 23
M  V30 23 2 22 24
M  V30 24 1 22 25
M  V30 25 1 24 26
M  V30 26 1 24 27
M  V30 27 2 25 28
M  V30 28 1 26 29
M  V30 29 2 27 30
M  V30 30 1 29 31
M  V30 31 1 9 11
M  V30 32 1 21 23
M  V30 33 1 28 30
M  V30 END BOND
M  V30 BEGIN COLLECTION
M  V30 MDLV30/STERAC1 ATOMS=(1 15)
M  V30 END COLLECTION
M  V30 END CTAB
M  END
>  <Rack>
PathogenBox_PlateE

>  <Position>
E09

>  <Compound ID>
MMV407834

>  <Disease Set>
MALARIA

>  <Trivial Name>


>  <Total Molecular Weight>
437.46

>  <Molecular Weight Parent Molecule>
437.46

>  <Molecular Formula>
C22H26N3O3F3

>  <Salt Name>


>  <Salt Coefficient>


>  <cLogP>
3.31

>  <SMILES>
CCOc1ccccc1NC(C)C(=O)Nc2cc(ccc2N3CCOCC3)C(F)(F)F

$$$$
Compound 369
Actelion Java MolfileCreator 2.0

  0  0  0  0  0  0              0 V3000
M  V30 BEGIN CTAB
M  V30 COUNTS 34 38 0 0 0
M  V30 BEGIN ATOM
M  V30 1 F 6.9832 -1.6997 0.0 0
M  V30 2 C 6.5765 -0.7861 0.0 0
M  V30 3 C 7.1643 0.0228 0.0 0
M  V30 4 C 5.582 -0.6816 0.0 0
M  V30 5 C 6.7575 0.9363 0.0 0
M  V30 6 C 8.1588 -0.0817 0.0 0
M  V30 7 C 5.1752 0.2318 0.0 0
M  V30 8 F 7.3453 1.7453 0.0 0
M  V30 9 C 5.763 1.0408 0.0 0
M  V30 10 C 8.5655 -0.9952 0.0 0
M  V30 11 C 8.7466 0.7273 0.0 0
M  V30 12 N 4.1807 0.3364 0.0 0
M  V30 13 C 9.56 -1.0997 0.0 0
M  V30 14 C 9.7411 0.6227 0.0 0
M  V30 15 C 3.6807 1.2024 0.0 0
M  V30 16 C 3.5116 -0.4067 0.0 0
M  V30 17 N 10.1478 -0.2907 0.0 0
M  V30 18 O 4.0874 2.1159 0.0 0
M  V30 19 O 2.7026 0.9945 0.0 0
M  V30 20 C 2.598 0.0 0.0 0 CFG=1
M  V30 21 C 11.1424 -0.3952 0.0 0
M  V30 22 C 1.732 -0.5 0.0 0
M  V30 23 C 11.7301 0.4137 0.0 0
M  V30 24 O 0.866 0.0 0.0 0
M  V30 25 C 12.7247 0.3091 0.0 0
M  V30 26 C 11.3234 1.3272 0.0 0
M  V30 27 C 0.0 -0.5 0.0 0
M  V30 28 C 13.3124 1.1182 0.0 0
M  V30 29 C 11.9112 2.1362 0.0 0
M  V30 30 N -0.9135 -0.0932 0.0 0
M  V30 31 C -0.1045 -1.4945 0.0 0
M  V30 32 C 12.9057 2.0317 0.0 0
M  V30 33 O -1.5826 -0.8364 0.0 0
M  V30 34 C -1.0826 -1.7024 0.0 0
M  V30 END ATOM
M  V30 BEGIN BOND
M  V30 1 1 1 2
M  V30 2 2 2 3
M  V30 3 1 2 4
M  V30 4 1 3 5
M  V30 5 1 3 6
M  V30 6 2 4 7
M  V30 7 1 5 8
M  V30 8 2 5 9
M  V30 9 2 6 10
M  V30 10 1 6 11
M  V30 11 1 7 12
M  V30 12 1 10 13
M  V30 13 1 11 14
M  V30 14 1 12 15
M  V30 15 1 12 16
M  V30 16 1 13 17
M  V30 17 2 15 18
M  V30 18 1 15 19
M  V30 19 1 20 16
M  V30 20 1 17 21
M  V30 21 1 20 22 CFG=3
M  V30 22 1 21 23
M  V30 23 1 22 24
M  V30 24 2 23 25
M  V30 25 1 23 26
M  V30 26 1 24 27
M  V30 27 1 25 28
M  V30 28 2 26 29
M  V30 29 2 27 30
M  V30 30 1 27 31
M  V30 31 2 28 32
M  V30 32 1 30 33
M  V30 33 2 31 34
M  V30 34 1 7 9
M  V30 35 1 14 17
M  V30 36 1 19 20
M  V30 37 1 29 32
M  V30 38 1 33 34
M  V30 END BOND
M  V30 BEGIN COLLECTION
M  V30 MDLV30/STEABS ATOMS=(1 20)
M  V30 END COLLECTION
M  V30 END CTAB
M  END
>  <Rack>
PathogenBox_PlateE

>  <Position>
E10

>  <Compound ID>
MMV687813

>  <Disease Set>
TUBERCULOSIS

>  <Trivial Name>


>  <Total Molecular Weight>
467.46

>  <Molecular Weight Parent Molecule>
467.46

>  <Molecular Formula>
C25H23N3O4F2

>  <Salt Name>


>  <Salt Coefficient>


>  <cLogP>
3.38

>  <SMILES>
Fc1cc(cc(F)c1C2=CCN(Cc3ccccc3)CC2)N4C[C@H](COc5ccon5)OC4=O

$$$$
Compound 370
Actelion Java MolfileCreator 2.0

  0  0  0  0  0  0              0 V3000
M  V30 BEGIN CTAB
M  V30 COUNTS 28 29 0 0 0
M  V30 BEGIN ATOM
M  V30 1 S 5.0467 -0.8364 0.0 0
M  V30 2 C 4.3776 -0.0932 0.0 0
M  V30 3 C 4.5467 -1.7024 0.0 0
M  V30 4 N 4.5855 0.8848 0.0 0
M  V30 5 C 3.4641 -0.5 0.0 0
M  V30 6 C 3.5686 -1.4945 0.0 0
M  V30 7 C 4.9535 -2.6159 0.0 0
M  V30 8 C 5.5366 1.1939 0.0 0
M  V30 9 C 2.598 0.0 0.0 0
M  V30 10 C 2.8254 -2.1636 0.0 0
M  V30 11 O 4.3657 -3.4249 0.0 0
M  V30 12 N 5.948 -2.7205 0.0 0
M  V30 13 O 6.2797 0.5247 0.0 0
M  V30 14 C 5.7445 2.172 0.0 0
M  V30 15 O 2.598 1.0 0.0 0
M  V30 16 O 1.732 -0.5 0.0 0
M  V30 17 C 6.6955 2.481 0.0 0
M  V30 18 C 5.0013 2.8411 0.0 0
M  V30 19 C 0.866 0.0 0.0 0
M  V30 20 F 7.4387 1.8119 0.0 0
M  V30 21 C 6.9034 3.4592 0.0 0
M  V30 22 F 4.0503 2.5321 0.0 0
M  V30 23 C 5.2092 3.8193 0.0 0
M  V30 24 C 0.0 -0.5 0.0 0
M  V30 25 F 7.8545 3.7682 0.0 0
M  V30 26 C 6.1603 4.1283 0.0 0
M  V30 27 F 4.4661 4.4884 0.0 0
M  V30 28 F 6.3682 5.1064 0.0 0
M  V30 END ATOM
M  V30 BEGIN BOND
M  V30 1 1 1 2
M  V30 2 1 1 3
M  V30 3 1 2 4
M  V30 4 2 2 5
M  V30 5 2 3 6
M  V30 6 1 3 7
M  V30 7 1 4 8
M  V30 8 1 5 9
M  V30 9 1 6 10
M  V30 10 2 7 11
M  V30 11 1 7 12
M  V30 12 2 8 13
M  V30 13 1 8 14
M  V30 14 2 9 15
M  V30 15 1 9 16
M  V30 16 2 14 17
M  V30 17 1 14 18
M  V30 18 1 16 19
M  V30 19 1 17 20
M  V30 20 1 17 21
M  V30 21 1 18 22
M  V30 22 2 18 23
M  V30 23 1 19 24
M  V30 24 1 21 25
M  V30 25 2 21 26
M  V30 26 1 23 27
M  V30 27 1 26 28
M  V30 28 1 5 6
M  V30 29 1 23 26
M  V30 END BOND
M  V30 END CTAB
M  END
>  <Rack>
PathogenBox_PlateE

>  <Position>
E11

>  <Compound ID>
MMV153413

>  <Disease Set>
TUBERCULOSIS

>  <Trivial Name>


>  <Total Molecular Weight>
422.33

>  <Molecular Weight Parent Molecule>
422.33

>  <Molecular Formula>
C16H11N2O4F5S

>  <Salt Name>


>  <Salt Coefficient>


>  <cLogP>
3.12

>  <SMILES>
CCOC(=O)c1c(C)c(sc1NC(=O)c2c(F)c(F)c(F)c(F)c2F)C(=O)N

$$$$
Compound 371
Actelion Java MolfileCreator 2.0

  0  0  0  0  0  0              0 V3000
M  V30 BEGIN CTAB
M  V30 COUNTS 26 27 0 0 0
M  V30 BEGIN ATOM
M  V30 1 O 7.7942 -0.75 0.0 0
M  V30 2 C 6.4951 0.0 0.0 0
M  V30 3 N 5.1961 -0.75 0.0 0
M  V30 4 C 6.4951 1.5 0.0 0
M  V30 5 C 3.8971 0.0 0.0 0 CFG=2
M  V30 6 C 7.7942 2.2499 0.0 0
M  V30 7 C 5.1961 2.25 0.0 0
M  V30 8 C 2.598 -0.75 0.0 0
M  V30 9 C 3.8971 1.5 0.0 0
M  V30 10 N 9.0932 1.4999 0.0 0
M  V30 11 C 7.7942 3.75 0.0 0
M  V30 12 C 5.1961 3.75 0.0 0
M  V30 13 O 2.598 -2.2499 0.0 0
M  V30 14 O 1.299 0.0 0.0 0
M  V30 15 C 2.598 2.25 0.0 0
M  V30 16 C 10.3923 2.2499 0.0 0
M  V30 17 C 6.4951 4.5 0.0 0
M  V30 18 C 0.0 -0.7499 0.0 0
M  V30 19 O 10.3923 3.7499 0.0 0
M  V30 20 C 11.6913 1.4999 0.0 0
M  V30 21 C 12.9903 2.2499 0.0 0
M  V30 22 C 11.6913 0.0 0.0 0
M  V30 23 C 14.2894 1.4999 0.0 0
M  V30 24 C 12.9903 -0.75 0.0 0
M  V30 25 C 14.2894 0.0 0.0 0
M  V30 26 C 15.5884 -0.75 0.0 0
M  V30 END ATOM
M  V30 BEGIN BOND
M  V30 1 2 1 2
M  V30 2 1 2 3
M  V30 3 1 2 4
M  V30 4 1 5 3 CFG=3
M  V30 5 2 4 6
M  V30 6 1 4 7
M  V30 7 1 5 8
M  V30 8 1 5 9
M  V30 9 1 6 10
M  V30 10 1 6 11
M  V30 11 2 7 12
M  V30 12 2 8 13
M  V30 13 1 8 14
M  V30 14 1 9 15
M  V30 15 1 10 16
M  V30 16 2 11 17
M  V30 17 1 14 18
M  V30 18 2 16 19
M  V30 19 1 16 20
M  V30 20 2 20 21
M  V30 21 1 20 22
M  V30 22 1 21 23
M  V30 23 2 22 24
M  V30 24 2 23 25
M  V30 25 1 25 26
M  V30 26 1 12 17
M  V30 27 1 24 25
M  V30 END BOND
M  V30 BEGIN COLLECTION
M  V30 MDLV30/STERAC1 ATOMS=(1 5)
M  V30 END COLLECTION
M  V30 END CTAB
M  END
>  <Rack>
PathogenBox_PlateE

>  <Position>
F02

>  <Compound ID>
MMV019551

>  <Disease Set>
MALARIA

>  <Trivial Name>


>  <Total Molecular Weight>
354.40

>  <Molecular Weight Parent Molecule>
354.40

>  <Molecular Formula>
C20H22N2O4

>  <Salt Name>


>  <Salt Coefficient>


>  <cLogP>
2.96

>  <SMILES>
CCC(NC(=O)c1ccccc1NC(=O)c2ccc(C)cc2)C(=O)OC

$$$$
Compound 372
Actelion Java MolfileCreator 2.0

  0  0  0  0  0  0              0 V3000
M  V30 BEGIN CTAB
M  V30 COUNTS 27 29 0 0 0
M  V30 BEGIN ATOM
M  V30 1 S 5.1752 0.2318 0.0 0
M  V30 2 C 5.582 -0.6816 0.0 0
M  V30 3 C 4.1807 0.3364 0.0 0
M  V30 4 N 4.9942 -1.4906 0.0 0
M  V30 5 N 6.5765 -0.7861 0.0 0
M  V30 6 C 3.6807 1.2024 0.0 0
M  V30 7 C 3.5116 -0.4067 0.0 0
M  V30 8 C 5.4009 -2.4042 0.0 0
M  V30 9 C 6.9832 -1.6997 0.0 0
M  V30 10 N 2.7026 0.9945 0.0 0
M  V30 11 C 4.0874 2.1159 0.0 0
M  V30 12 N 2.598 0.0 0.0 0
M  V30 13 C 3.7195 -1.3848 0.0 0
M  V30 14 C 6.3954 -2.5087 0.0 0
M  V30 15 C 1.732 -0.5 0.0 0
M  V30 16 O 1.732 -1.5 0.0 0
M  V30 17 N 0.866 0.0 0.0 0
M  V30 18 C 0.0 -0.5 0.0 0
M  V30 19 C -0.866 0.0 0.0 0
M  V30 20 C 0.0 -1.4999 0.0 0
M  V30 21 C -1.732 -0.4999 0.0 0
M  V30 22 C -0.866 -1.9999 0.0 0
M  V30 23 C -1.732 -1.4999 0.0 0
M  V30 24 C -2.598 0.0 0.0 0
M  V30 25 F -3.098 -0.866 0.0 0
M  V30 26 F -3.4641 0.5 0.0 0
M  V30 27 F -2.098 0.866 0.0 0
M  V30 END ATOM
M  V30 BEGIN BOND
M  V30 1 1 1 2
M  V30 2 1 1 3
M  V30 3 2 2 4
M  V30 4 1 2 5
M  V30 5 1 3 6
M  V30 6 2 3 7
M  V30 7 1 4 8
M  V30 8 2 5 9
M  V30 9 2 6 10
M  V30 10 1 6 11
M  V30 11 1 7 12
M  V30 12 1 7 13
M  V30 13 2 8 14
M  V30 14 1 12 15
M  V30 15 2 15 16
M  V30 16 1 15 17
M  V30 17 1 17 18
M  V30 18 2 18 19
M  V30 19 1 18 20
M  V30 20 1 19 21
M  V30 21 2 20 22
M  V30 22 2 21 23
M  V30 23 1 21 24
M  V30 24 1 24 25
M  V30 25 1 24 26
M  V30 26 1 24 27
M  V30 27 1 9 14
M  V30 28 1 10 12
M  V30 29 1 22 23
M  V30 END BOND
M  V30 END CTAB
M  END
>  <Rack>
PathogenBox_PlateE

>  <Position>
F03

>  <Compound ID>
MMV688552

>  <Disease Set>
SCHISTOSOMIASIS

>  <Trivial Name>


>  <Total Molecular Weight>
393.39

>  <Molecular Weight Parent Molecule>
393.39

>  <Molecular Formula>
C17H14N5OF3S

>  <Salt Name>


>  <Salt Coefficient>


>  <cLogP>
3.42

>  <SMILES>
CC(C(SC1=NC=CC=N1)=C2C)=NN2C(NC3=CC=CC(C(F)(F)F)=C3)=O

$$$$
Compound 373
Actelion Java MolfileCreator 2.0

  0  0  0  0  0  0              0 V3000
M  V30 BEGIN CTAB
M  V30 COUNTS 27 30 0 0 0
M  V30 BEGIN ATOM
M  V30 1 Br 1.299 4.4999 0.0 0
M  V30 2 C 2.598 3.7499 0.0 0
M  V30 3 C 2.598 2.2499 0.0 0
M  V30 4 C 3.8971 4.5 0.0 0
M  V30 5 C 3.8971 1.4999 0.0 0
M  V30 6 C 5.1961 3.75 0.0 0
M  V30 7 C 5.1961 2.25 0.0 0
M  V30 8 C 3.8971 0.0 0.0 0
M  V30 9 N 6.4951 1.5 0.0 0
M  V30 10 C 2.598 -0.75 0.0 0
M  V30 11 C 5.1961 -0.7499 0.0 0
M  V30 12 C 6.4951 0.0 0.0 0
M  V30 13 O 2.598 -2.25 0.0 0
M  V30 14 N 1.299 0.0 0.0 0
M  V30 15 C 7.7942 -0.7499 0.0 0
M  V30 16 C 0.0 -0.75 0.0 0
M  V30 17 C 7.7942 -2.2499 0.0 0
M  V30 18 C 9.0932 0.0 0.0 0
M  V30 19 C -1.299 0.0 0.0 0
M  V30 20 C 0.0 -2.2499 0.0 0
M  V30 21 C 9.0932 -2.9999 0.0 0
M  V30 22 C 10.3923 -0.7499 0.0 0
M  V30 23 N -2.598 -0.7499 0.0 0
M  V30 24 C -1.299 -2.9999 0.0 0
M  V30 25 C 10.3923 -2.2499 0.0 0
M  V30 26 C -2.598 -2.2499 0.0 0
M  V30 27 C 11.6913 -2.9999 0.0 0
M  V30 END ATOM
M  V30 BEGIN BOND
M  V30 1 1 1 2
M  V30 2 2 2 3
M  V30 3 1 2 4
M  V30 4 1 3 5
M  V30 5 2 4 6
M  V30 6 1 5 7
M  V30 7 2 5 8
M  V30 8 2 7 9
M  V30 9 1 8 10
M  V30 10 1 8 11
M  V30 11 1 9 12
M  V30 12 2 10 13
M  V30 13 1 10 14
M  V30 14 1 12 15
M  V30 15 1 14 16
M  V30 16 2 15 17
M  V30 17 1 15 18
M  V30 18 2 16 19
M  V30 19 1 16 20
M  V30 20 1 17 21
M  V30 21 2 18 22
M  V30 22 1 19 23
M  V30 23 2 20 24
M  V30 24 2 21 25
M  V30 25 2 23 26
M  V30 26 1 25 27
M  V30 27 1 6 7
M  V30 28 2 11 12
M  V30 29 1 22 25
M  V30 30 1 24 26
M  V30 END BOND
M  V30 END CTAB
M  END
>  <Rack>
PathogenBox_PlateE

>  <Position>
F04

>  <Compound ID>
MMV016838

>  <Disease Set>
MALARIA

>  <Trivial Name>


>  <Total Molecular Weight>
418.30

>  <Molecular Weight Parent Molecule>
418.30

>  <Molecular Formula>
C22H16N3OBr

>  <Salt Name>


>  <Salt Coefficient>


>  <cLogP>
4.94

>  <SMILES>
Cc1ccc(cc1)-c1cc(c2cc(ccc2n1)Br)C(=O)Nc1cccnc1

$$$$
Compound 374
Actelion Java MolfileCreator 2.0

  0  0  0  0  0  0              0 V3000
M  V30 BEGIN CTAB
M  V30 COUNTS 26 28 0 0 0
M  V30 BEGIN ATOM
M  V30 1 F 3.4641 2.5 0.0 0
M  V30 2 C 3.4641 1.5 0.0 0
M  V30 3 C 2.598 1.0 0.0 0
M  V30 4 C 4.3301 1.0 0.0 0
M  V30 5 C 2.598 0.0 0.0 0
M  V30 6 C 4.3301 0.0 0.0 0
M  V30 7 C 3.4641 -0.4999 0.0 0
M  V30 8 C 1.732 -0.5 0.0 0
M  V30 9 O 0.866 0.0 0.0 0
M  V30 10 C 0.0 -0.5 0.0 0
M  V30 11 C -0.866 0.0 0.0 0
M  V30 12 C 0.0 -1.4999 0.0 0
M  V30 13 C -1.732 -0.4999 0.0 0
M  V30 14 C -0.866 -1.9999 0.0 0
M  V30 15 C -1.732 -1.4999 0.0 0
M  V30 16 C -2.598 -1.9999 0.0 0 CFG=2
M  V30 17 N -3.4641 -1.4999 0.0 0
M  V30 18 C -2.598 -2.9999 0.0 0
M  V30 19 C -3.4641 -0.4999 0.0 0 CFG=1
M  V30 20 C -4.3301 -1.9999 0.0 0
M  V30 21 C -3.4641 -3.4999 0.0 0
M  V30 22 C -4.3301 0.0 0.0 0
M  V30 23 C -2.598 0.0 0.0 0
M  V30 24 C -4.3301 -2.9999 0.0 0
M  V30 25 O -5.1961 -0.4999 0.0 0
M  V30 26 N -4.3301 1.0 0.0 0
M  V30 END ATOM
M  V30 BEGIN BOND
M  V30 1 1 1 2
M  V30 2 2 2 3
M  V30 3 1 2 4
M  V30 4 1 3 5
M  V30 5 2 4 6
M  V30 6 2 5 7
M  V30 7 1 5 8
M  V30 8 1 8 9
M  V30 9 1 9 10
M  V30 10 2 10 11
M  V30 11 1 10 12
M  V30 12 1 11 13
M  V30 13 2 12 14
M  V30 14 2 13 15
M  V30 15 1 16 15 CFG=1
M  V30 16 1 16 17
M  V30 17 1 16 18
M  V30 18 1 19 17 CFG=1
M  V30 19 1 17 20
M  V30 20 1 18 21
M  V30 21 1 19 22
M  V30 22 1 19 23
M  V30 23 1 20 24
M  V30 24 2 22 25
M  V30 25 1 22 26
M  V30 26 1 6 7
M  V30 27 1 14 15
M  V30 28 1 21 24
M  V30 END BOND
M  V30 BEGIN COLLECTION
M  V30 MDLV30/STEABS ATOMS=(2 16 19)
M  V30 END COLLECTION
M  V30 END CTAB
M  END
>  <Rack>
PathogenBox_PlateE

>  <Position>
F05

>  <Compound ID>
MMV676270

>  <Disease Set>
MALARIA

>  <Trivial Name>


>  <Total Molecular Weight>
356.43

>  <Molecular Weight Parent Molecule>
356.43

>  <Molecular Formula>
C21H25N2O2F

>  <Salt Name>


>  <Salt Coefficient>


>  <cLogP>
3.05

>  <SMILES>
C[C@@H](N1CCCC[C@@H]1c2ccc(OCc3cccc(F)c3)cc2)C(=O)N

$$$$
Compound 375
Actelion Java MolfileCreator 2.0

  0  0  0  0  0  0              0 V3000
M  V30 BEGIN CTAB
M  V30 COUNTS 25 27 0 0 0
M  V30 BEGIN ATOM
M  V30 1 F 6.5621 1.866 0.0 0
M  V30 2 C 6.0621 1.0 0.0 0
M  V30 3 F 6.9282 0.5 0.0 0
M  V30 4 F 5.5621 0.1339 0.0 0
M  V30 5 O 5.1961 1.5 0.0 0
M  V30 6 C 4.3301 1.0 0.0 0
M  V30 7 C 3.4641 1.5 0.0 0
M  V30 8 C 4.3301 0.0 0.0 0
M  V30 9 C 2.598 0.9999 0.0 0
M  V30 10 C 3.4641 -0.4999 0.0 0
M  V30 11 C 2.598 0.0 0.0 0
M  V30 12 C 1.732 -0.5 0.0 0
M  V30 13 O 0.866 0.0 0.0 0
M  V30 14 C 0.0 -0.5 0.0 0 CFG=2
M  V30 15 C -0.866 0.0 0.0 0
M  V30 16 C 0.0 -1.4999 0.0 0
M  V30 17 O -1.732 -0.4999 0.0 0
M  V30 18 N -0.866 -1.9999 0.0 0
M  V30 19 C -1.732 -1.4999 0.0 0
M  V30 20 C -1.0739 -2.9781 0.0 0
M  V30 21 N -2.4751 -2.1691 0.0 0
M  V30 22 C -2.0684 -3.0826 0.0 0
M  V30 23 N -2.5684 -3.9487 0.0 0 CHG=1
M  V30 24 O -3.5684 -3.9487 0.0 0
M  V30 25 O -2.0684 -4.8147 0.0 0 CHG=-1
M  V30 END ATOM
M  V30 BEGIN BOND
M  V30 1 1 1 2
M  V30 2 1 2 3
M  V30 3 1 2 4
M  V30 4 1 2 5
M  V30 5 1 5 6
M  V30 6 2 6 7
M  V30 7 1 6 8
M  V30 8 1 7 9
M  V30 9 2 8 10
M  V30 10 2 9 11
M  V30 11 1 11 12
M  V30 12 1 12 13
M  V30 13 1 14 13 CFG=1
M  V30 14 1 14 15
M  V30 15 1 14 16
M  V30 16 1 15 17
M  V30 17 1 16 18
M  V30 18 1 17 19
M  V30 19 1 18 20
M  V30 20 2 19 21
M  V30 21 2 20 22
M  V30 22 1 22 23
M  V30 23 2 23 24
M  V30 24 1 23 25
M  V30 25 1 10 11
M  V30 26 1 18 19
M  V30 27 1 21 22
M  V30 END BOND
M  V30 BEGIN COLLECTION
M  V30 MDLV30/STEABS ATOMS=(1 14)
M  V30 END COLLECTION
M  V30 END CTAB
M  END
>  <Rack>
PathogenBox_PlateE

>  <Position>
F06

>  <Compound ID>
MMV688755

>  <Disease Set>
TUBERCULOSIS

>  <Trivial Name>


>  <Total Molecular Weight>
359.26

>  <Molecular Weight Parent Molecule>
359.26

>  <Molecular Formula>
C14H12N3O5F3

>  <Salt Name>


>  <Salt Coefficient>


>  <cLogP>
2.81

>  <SMILES>
[O-][N+](=O)c1cn2C[C@@H](COc2n1)OCc3ccc(OC(F)(F)F)cc3

$$$$
Compound 376
Actelion Java MolfileCreator 2.0

  0  0  0  0  0  0              0 V3000
M  V30 BEGIN CTAB
M  V30 COUNTS 28 31 0 0 0
M  V30 BEGIN ATOM
M  V30 1 S 2.7026 0.9945 0.0 0
M  V30 2 C 2.598 0.0 0.0 0
M  V30 3 C 3.6807 1.2024 0.0 0
M  V30 4 N 1.732 -0.5 0.0 0
M  V30 5 C 3.5116 -0.4067 0.0 0
M  V30 6 C 4.1807 0.3364 0.0 0
M  V30 7 C 4.3498 1.9455 0.0 0
M  V30 8 C 0.866 0.0 0.0 0
M  V30 9 C 3.7195 -1.3848 0.0 0
M  V30 10 C 5.1588 0.5443 0.0 0
M  V30 11 C 5.2634 1.5388 0.0 0
M  V30 12 O 0.866 1.0 0.0 0
M  V30 13 C 0.0 -0.5 0.0 0
M  V30 14 O 4.6705 -1.6939 0.0 0
M  V30 15 N 2.9763 -2.054 0.0 0
M  V30 16 C -0.866 0.0 0.0 0
M  V30 17 C 0.0 -1.4999 0.0 0
M  V30 18 C 3.1843 -3.0321 0.0 0
M  V30 19 N -1.732 -0.4999 0.0 0
M  V30 20 C -0.866 -1.9999 0.0 0
M  V30 21 C 2.4411 -3.7012 0.0 0
M  V30 22 C 4.1353 -3.3411 0.0 0
M  V30 23 C -1.732 -1.4999 0.0 0
M  V30 24 C 2.649 -4.6794 0.0 0
M  V30 25 C 4.3432 -4.3193 0.0 0
M  V30 26 O 1.9059 -5.3485 0.0 0
M  V30 27 C 3.6001 -4.9884 0.0 0
M  V30 28 C 2.1138 -6.3267 0.0 0
M  V30 END ATOM
M  V30 BEGIN BOND
M  V30 1 1 1 2
M  V30 2 1 1 3
M  V30 3 1 2 4
M  V30 4 2 2 5
M  V30 5 2 3 6
M  V30 6 1 3 7
M  V30 7 1 4 8
M  V30 8 1 5 9
M  V30 9 1 6 10
M  V30 10 1 7 11
M  V30 11 2 8 12
M  V30 12 1 8 13
M  V30 13 2 9 14
M  V30 14 1 9 15
M  V30 15 2 13 16
M  V30 16 1 13 17
M  V30 17 1 15 18
M  V30 18 1 16 19
M  V30 19 2 17 20
M  V30 20 2 18 21
M  V30 21 1 18 22
M  V30 22 2 19 23
M  V30 23 1 21 24
M  V30 24 2 22 25
M  V30 25 1 24 26
M  V30 26 2 24 27
M  V30 27 1 26 28
M  V30 28 1 5 6
M  V30 29 1 10 11
M  V30 30 1 20 23
M  V30 31 1 25 27
M  V30 END BOND
M  V30 END CTAB
M  END
>  <Rack>
PathogenBox_PlateE

>  <Position>
F07

>  <Compound ID>
MMV228911

>  <Disease Set>
TUBERCULOSIS

>  <Trivial Name>


>  <Total Molecular Weight>
393.46

>  <Molecular Weight Parent Molecule>
393.46

>  <Molecular Formula>
C21H19N3O3S

>  <Salt Name>


>  <Salt Coefficient>


>  <cLogP>
3.75

>  <SMILES>
COc1cccc(NC(=O)c2c3CCCc3sc2NC(=O)c4cccnc4)c1

$$$$
Compound 377
Actelion Java MolfileCreator 2.0

  0  0  0  0  0  0              0 V3000
M  V30 BEGIN CTAB
M  V30 COUNTS 17 18 0 0 0
M  V30 BEGIN ATOM
M  V30 1 S 5.4515 -1.3848 0.0 0
M  V30 2 O 4.4734 -1.5927 0.0 0
M  V30 3 O 6.4297 -1.1769 0.0 0
M  V30 4 C 5.2436 -0.4067 0.0 0
M  V30 5 C 5.6594 -2.363 0.0 0
M  V30 6 N 5.9128 0.3364 0.0 0
M  V30 7 N 4.3301 0.0 0.0 0
M  V30 8 N 5.4128 1.2024 0.0 0
M  V30 9 N 4.4346 0.9945 0.0 0
M  V30 10 C 3.4641 -0.5 0.0 0
M  V30 11 C 2.598 0.0 0.0 0
M  V30 12 C 3.4641 -1.4999 0.0 0
M  V30 13 C 1.732 -0.5 0.0 0
M  V30 14 C 2.598 -2.0 0.0 0
M  V30 15 O 0.866 0.0 0.0 0
M  V30 16 C 1.732 -1.5 0.0 0
M  V30 17 C 0.0 -0.5 0.0 0
M  V30 END ATOM
M  V30 BEGIN BOND
M  V30 1 2 1 2
M  V30 2 2 1 3
M  V30 3 1 1 4
M  V30 4 1 1 5
M  V30 5 2 4 6
M  V30 6 1 4 7
M  V30 7 1 6 8
M  V30 8 1 7 9
M  V30 9 1 7 10
M  V30 10 2 10 11
M  V30 11 1 10 12
M  V30 12 1 11 13
M  V30 13 2 12 14
M  V30 14 1 13 15
M  V30 15 2 13 16
M  V30 16 1 15 17
M  V30 17 2 8 9
M  V30 18 1 14 16
M  V30 END BOND
M  V30 END CTAB
M  END
>  <Rack>
PathogenBox_PlateE

>  <Position>
F08

>  <Compound ID>
MMV272144

>  <Disease Set>
TUBERCULOSIS

>  <Trivial Name>


>  <Total Molecular Weight>
254.27

>  <Molecular Weight Parent Molecule>
254.27

>  <Molecular Formula>
C9H10N4O3S

>  <Salt Name>


>  <Salt Coefficient>


>  <cLogP>
-0.27

>  <SMILES>
COc1cccc(c1)n2nnnc2S(=O)(=O)C

$$$$
Compound 378
Actelion Java MolfileCreator 2.0

  0  0  0  0  0  0              0 V3000
M  V30 BEGIN CTAB
M  V30 COUNTS 18 20 0 0 0
M  V30 BEGIN ATOM
M  V30 1 O 0.866 0.0 0.0 0
M  V30 2 C 1.732 -0.5 0.0 0
M  V30 3 C 0.0 -0.5 0.0 0
M  V30 4 C 1.732 -1.5 0.0 0
M  V30 5 C 2.598 0.0 0.0 0
M  V30 6 C -0.866 0.0 0.0 0
M  V30 7 C 0.0 -1.4999 0.0 0
M  V30 8 C 2.598 -2.0 0.0 0
M  V30 9 C 3.4641 -0.5 0.0 0
M  V30 10 C -1.732 -0.4999 0.0 0
M  V30 11 C -0.866 -1.9999 0.0 0
M  V30 12 C 2.598 -3.0 0.0 0
M  V30 13 C 3.4641 -1.5 0.0 0
M  V30 14 N -1.732 -1.4999 0.0 0
M  V30 15 N 3.4641 -3.5 0.0 0
M  V30 16 N 1.732 -3.5 0.0 0
M  V30 17 C 4.3301 -2.0 0.0 0
M  V30 18 C 4.3301 -3.0 0.0 0
M  V30 END ATOM
M  V30 BEGIN BOND
M  V30 1 1 1 2
M  V30 2 1 1 3
M  V30 3 2 2 4
M  V30 4 1 2 5
M  V30 5 2 3 6
M  V30 6 1 3 7
M  V30 7 1 4 8
M  V30 8 2 5 9
M  V30 9 1 6 10
M  V30 10 2 7 11
M  V30 11 2 8 12
M  V30 12 1 8 13
M  V30 13 2 10 14
M  V30 14 1 12 15
M  V30 15 1 12 16
M  V30 16 2 13 17
M  V30 17 2 15 18
M  V30 18 1 9 13
M  V30 19 1 11 14
M  V30 20 1 17 18
M  V30 END BOND
M  V30 END CTAB
M  END
>  <Rack>
PathogenBox_PlateE

>  <Position>
F09

>  <Compound ID>
MMV026313

>  <Disease Set>
MALARIA

>  <Trivial Name>


>  <Total Molecular Weight>
237.26

>  <Molecular Weight Parent Molecule>
237.26

>  <Molecular Formula>
C14H11N3O

>  <Salt Name>


>  <Salt Coefficient>


>  <cLogP>
1.92

>  <SMILES>
Nc1nccc2ccc(Oc3ccncc3)cc12

$$$$
Compound 379
Actelion Java MolfileCreator 2.0

  0  0  0  0  0  0              0 V3000
M  V30 BEGIN CTAB
M  V30 COUNTS 27 28 0 0 0
M  V30 BEGIN ATOM
M  V30 1 Cl 10.3923 2.25 0.0 0
M  V30 2 C 9.0932 1.5 0.0 0
M  V30 3 C 7.7942 2.25 0.0 0
M  V30 4 C 9.0932 0.0 0.0 0
M  V30 5 C 6.4952 1.5 0.0 0
M  V30 6 C 7.7942 -0.75 0.0 0
M  V30 7 C 6.4952 0.0 0.0 0
M  V30 8 C 5.1961 2.25 0.0 0
M  V30 9 N 5.1961 -0.75 0.0 0
M  V30 10 C 3.8971 0.0 0.0 0
M  V30 11 O 3.8971 1.5 0.0 0
M  V30 12 C 2.598 -0.75 0.0 0
M  V30 13 C 1.299 0.0 0.0 0
M  V30 14 C 0.0 -0.75 0.0 0
M  V30 15 C -1.299 0.0 0.0 0
M  V30 16 C 0.0 -2.25 0.0 0
M  V30 17 C -2.598 -0.75 0.0 0
M  V30 18 C -1.299 -3.0 0.0 0
M  V30 19 C -2.598 -2.25 0.0 0
M  V30 20 S -3.8971 -3.0 0.0 0
M  V30 21 O -4.6471 -4.299 0.0 0
M  V30 22 O -3.1471 -4.299 0.0 0
M  V30 23 N -5.1961 -2.25 0.0 0
M  V30 24 C -6.4952 -3.0 0.0 0
M  V30 25 C -7.7942 -2.25 0.0 0
M  V30 26 C -7.7942 -0.75 0.0 0
M  V30 27 C -9.0932 -3.0 0.0 0
M  V30 END ATOM
M  V30 BEGIN BOND
M  V30 1 1 1 2
M  V30 2 2 2 3
M  V30 3 1 2 4
M  V30 4 1 3 5
M  V30 5 2 4 6
M  V30 6 2 5 7
M  V30 7 1 5 8
M  V30 8 1 7 9
M  V30 9 1 9 10
M  V30 10 2 10 11
M  V30 11 1 10 12
M  V30 12 1 12 13
M  V30 13 1 13 14
M  V30 14 2 14 15
M  V30 15 1 14 16
M  V30 16 1 15 17
M  V30 17 2 16 18
M  V30 18 2 17 19
M  V30 19 1 19 20
M  V30 20 2 20 21
M  V30 21 2 20 22
M  V30 22 1 20 23
M  V30 23 1 23 24
M  V30 24 1 24 25
M  V30 25 1 25 26
M  V30 26 1 25 27
M  V30 27 1 6 7
M  V30 28 1 18 19
M  V30 END BOND
M  V30 END CTAB
M  END
>  <Rack>
PathogenBox_PlateE

>  <Position>
F10

>  <Compound ID>
MMV161996

>  <Disease Set>
TUBERCULOSIS

>  <Trivial Name>


>  <Total Molecular Weight>
408.95

>  <Molecular Weight Parent Molecule>
408.95

>  <Molecular Formula>
C20H25N2O3ClS

>  <Salt Name>


>  <Salt Coefficient>


>  <cLogP>
4.41

>  <SMILES>
CC(C)CNS(=O)(=O)c1ccc(CCC(=O)Nc2ccc(Cl)cc2C)cc1

$$$$
Compound 380
Actelion Java MolfileCreator 2.0

  0  0  0  0  0  0              0 V3000
M  V30 BEGIN CTAB
M  V30 COUNTS 31 32 0 0 0
M  V30 BEGIN ATOM
M  V30 1 O 7.7942 0.0 0.0 0
M  V30 2 C 6.9282 -0.5 0.0 0
M  V30 3 N 6.0621 0.0 0.0 0
M  V30 4 C 6.9282 -1.4999 0.0 0
M  V30 5 C 6.0621 0.9999 0.0 0
M  V30 6 C 5.1961 -0.5 0.0 0
M  V30 7 C 7.9282 -1.5 0.0 0
M  V30 8 C 6.9282 -2.5 0.0 0
M  V30 9 C 5.9282 -1.4999 0.0 0
M  V30 10 C 6.9631 1.4338 0.0 0
M  V30 11 C 5.1612 1.4338 0.0 0
M  V30 12 C 4.3301 0.0 0.0 0
M  V30 13 C 7.1856 2.4088 0.0 0
M  V30 14 C 4.9386 2.4088 0.0 0
M  V30 15 C 3.4641 -0.5 0.0 0
M  V30 16 C 6.5621 3.1906 0.0 0
M  V30 17 C 5.5621 3.1906 0.0 0
M  V30 18 C 2.598 0.0 0.0 0
M  V30 19 C 1.732 -0.5 0.0 0
M  V30 20 C 0.866 0.0 0.0 0
M  V30 21 N 0.0 -0.5 0.0 0
M  V30 22 C -0.866 0.0 0.0 0 CFG=1
M  V30 23 C 0.0 -1.4999 0.0 0
M  V30 24 C -1.732 -0.4999 0.0 0 CFG=1
M  V30 25 C -0.866 1.0 0.0 0
M  V30 26 C -0.866 -1.9999 0.0 0 CFG=1
M  V30 27 O -2.598 0.0 0.0 0
M  V30 28 C -1.732 -1.4999 0.0 0 CFG=1
M  V30 29 O -1.732 1.5 0.0 0
M  V30 30 O -0.866 -2.9999 0.0 0
M  V30 31 O -2.598 -1.9999 0.0 0
M  V30 END ATOM
M  V30 BEGIN BOND
M  V30 1 2 1 2
M  V30 2 1 2 3
M  V30 3 1 2 4
M  V30 4 1 3 5
M  V30 5 1 3 6
M  V30 6 1 4 7
M  V30 7 1 4 8
M  V30 8 1 4 9
M  V30 9 1 5 10
M  V30 10 1 5 11
M  V30 11 1 6 12
M  V30 12 1 10 13
M  V30 13 1 11 14
M  V30 14 1 12 15
M  V30 15 1 13 16
M  V30 16 1 14 17
M  V30 17 1 15 18
M  V30 18 1 18 19
M  V30 19 1 19 20
M  V30 20 1 20 21
M  V30 21 1 22 21
M  V30 22 1 21 23
M  V30 23 1 24 22
M  V30 24 1 22 25 CFG=1
M  V30 25 1 26 23
M  V30 26 1 24 27 CFG=3
M  V30 27 1 28 24
M  V30 28 1 25 29
M  V30 29 1 26 30 CFG=3
M  V30 30 1 28 31 CFG=1
M  V30 31 1 16 17
M  V30 32 1 26 28
M  V30 END BOND
M  V30 BEGIN COLLECTION
M  V30 MDLV30/STEABS ATOMS=(4 22 24 26 28)
M  V30 END COLLECTION
M  V30 END CTAB
M  END
>  <Rack>
PathogenBox_PlateE

>  <Position>
F11

>  <Compound ID>
MMV688543

>  <Disease Set>
DENGUE

>  <Trivial Name>


>  <Total Molecular Weight>
442.63

>  <Molecular Weight Parent Molecule>
442.63

>  <Molecular Formula>
C24H46N2O5

>  <Salt Name>


>  <Salt Coefficient>


>  <cLogP>
2.55

>  <SMILES>
CC(C)(C)C(=O)N(CCCCCCN1C[C@H](O)[C@@H](O)[C@H](O)[C@H]1CO)C2CCCCCC2

$$$$
Compound 381
Actelion Java MolfileCreator 2.0

  0  0  0  0  0  0              0 V3000
M  V30 BEGIN CTAB
M  V30 COUNTS 27 29 0 0 0
M  V30 BEGIN ATOM
M  V30 1 O 6.5548 0.0 0.0 0
M  V30 2 C 5.2438 -0.7568 0.0 0
M  V30 3 N 3.9329 0.0 0.0 0
M  V30 4 C 5.2438 -2.2706 0.0 0
M  V30 5 C 2.6219 -0.7568 0.0 0 CFG=2
M  V30 6 C 3.9329 -3.0275 0.0 0
M  V30 7 C 6.5548 -3.0275 0.0 0
M  V30 8 C 1.3109 0.0 0.0 0
M  V30 9 C 2.6219 -2.2706 0.0 0
M  V30 10 C 3.9329 -4.5413 0.0 0
M  V30 11 C 6.5548 -4.5413 0.0 0
M  V30 12 C 0.0 -0.7568 0.0 0
M  V30 13 C 5.2438 -5.2982 0.0 0
M  V30 14 N 5.1118 -6.731 0.0 0
M  V30 15 C 3.9329 -7.5689 0.0 0
M  V30 16 O 2.6219 -6.812 0.0 0
M  V30 17 C 3.9329 -9.0826 0.0 0
M  V30 18 C 5.2817 -8.3954 0.0 0
M  V30 19 C 2.7082 -9.9724 0.0 0
M  V30 20 C 5.1575 -9.9724 0.0 0
M  V30 21 C 6.5512 -9.2199 0.0 0
M  V30 22 C 5.625 -7.0456 0.0 0
M  V30 23 C 3.176 -11.4121 0.0 0
M  V30 24 C 4.6898 -11.4121 0.0 0
M  V30 25 C 7.9 -8.5326 0.0 0
M  V30 26 C 6.7097 -6.1964 0.0 0
M  V30 27 C 7.9792 -7.0209 0.0 0
M  V30 END ATOM
M  V30 BEGIN BOND
M  V30 1 2 1 2
M  V30 2 1 2 3
M  V30 3 1 2 4
M  V30 4 1 5 3 CFG=1
M  V30 5 2 4 6
M  V30 6 1 4 7
M  V30 7 1 5 8
M  V30 8 1 5 9
M  V30 9 1 6 10
M  V30 10 2 7 11
M  V30 11 1 8 12
M  V30 12 2 10 13
M  V30 13 1 13 14
M  V30 14 1 14 15
M  V30 15 2 15 16
M  V30 16 1 15 17
M  V30 17 1 17 18
M  V30 18 1 17 19
M  V30 19 1 17 20
M  V30 20 2 18 21
M  V30 21 1 18 22
M  V30 22 1 19 23
M  V30 23 1 20 24
M  V30 24 1 21 25
M  V30 25 2 22 26
M  V30 26 2 25 27
M  V30 27 1 11 13
M  V30 28 1 23 24
M  V30 29 1 26 27
M  V30 END BOND
M  V30 BEGIN COLLECTION
M  V30 MDLV30/STERAC1 ATOMS=(1 5)
M  V30 END COLLECTION
M  V30 END CTAB
M  END
>  <Rack>
PathogenBox_PlateE

>  <Position>
G02

>  <Compound ID>
MMV146306

>  <Disease Set>
TUBERCULOSIS

>  <Trivial Name>


>  <Total Molecular Weight>
364.49

>  <Molecular Weight Parent Molecule>
364.49

>  <Molecular Formula>
C23H28N2O2

>  <Salt Name>


>  <Salt Coefficient>


>  <cLogP>
4.27

>  <SMILES>
CCC(C)NC(=O)c1ccc(NC(=O)C2(CCCC2)c3ccccc3)cc1

$$$$
Compound 382
Actelion Java MolfileCreator 2.0

  0  0  0  0  0  0              0 V3000
M  V30 BEGIN CTAB
M  V30 COUNTS 17 18 0 0 0
M  V30 BEGIN ATOM
M  V30 1 S 3.8971 0.0 0.0 0
M  V30 2 O 4.6471 1.299 0.0 0
M  V30 3 O 3.1471 1.299 0.0 0
M  V30 4 C 5.1961 -0.75 0.0 0
M  V30 5 C 2.598 -0.75 0.0 0 CFG=2
M  V30 6 C 5.1961 -2.25 0.0 0
M  V30 7 C 6.4952 0.0 0.0 0
M  V30 8 C 2.598 -2.25 0.0 0
M  V30 9 C 1.299 0.0 0.0 0
M  V30 10 C 6.4952 -3.0 0.0 0
M  V30 11 C 7.7942 -0.75 0.0 0
M  V30 12 S 1.3845 -3.1316 0.0 0
M  V30 13 C 3.8116 -3.1316 0.0 0
M  V30 14 N 0.0 -0.75 0.0 0
M  V30 15 C 7.7942 -2.25 0.0 0
M  V30 16 C 1.848 -4.5582 0.0 0
M  V30 17 C 3.348 -4.5582 0.0 0
M  V30 END ATOM
M  V30 BEGIN BOND
M  V30 1 2 1 2
M  V30 2 2 1 3
M  V30 3 1 1 4
M  V30 4 1 5 1 CFG=3
M  V30 5 2 4 6
M  V30 6 1 4 7
M  V30 7 1 5 8
M  V30 8 1 5 9
M  V30 9 1 6 10
M  V30 10 2 7 11
M  V30 11 1 8 12
M  V30 12 2 8 13
M  V30 13 1 9 14
M  V30 14 2 10 15
M  V30 15 1 12 16
M  V30 16 1 13 17
M  V30 17 1 11 15
M  V30 18 2 16 17
M  V30 END BOND
M  V30 BEGIN COLLECTION
M  V30 MDLV30/STERAC1 ATOMS=(1 5)
M  V30 END COLLECTION
M  V30 END CTAB
M  END
>  <Rack>
PathogenBox_PlateE

>  <Position>
G03

>  <Compound ID>
MMV688557

>  <Disease Set>
TUBERCULOSIS

>  <Trivial Name>


>  <Total Molecular Weight>
303.83

>  <Molecular Weight Parent Molecule>
267.37

>  <Molecular Formula>
C12H13NO2S2

>  <Salt Name>
Hydrochloride

>  <Salt Coefficient>
1

>  <cLogP>
1.56

>  <SMILES>
NCC(c1cccs1)S(=O)(=O)c2ccccc2

$$$$
Compound 383
Actelion Java MolfileCreator 2.0

  0  0  0  0  0  0              0 V3000
M  V30 BEGIN CTAB
M  V30 COUNTS 22 25 0 0 0
M  V30 BEGIN ATOM
M  V30 1 N 1.732 -1.4999 0.0 0
M  V30 2 C 2.598 -1.9999 0.0 0
M  V30 3 C 1.732 -0.5 0.0 0
M  V30 4 N 3.4641 -1.4999 0.0 0
M  V30 5 C 2.598 -3.0 0.0 0
M  V30 6 N 0.866 0.0 0.0 0
M  V30 7 C 2.598 0.0 0.0 0
M  V30 8 C 3.4641 -0.5 0.0 0
M  V30 9 N 1.732 -3.4999 0.0 0
M  V30 10 C 3.4641 -3.5 0.0 0
M  V30 11 C 0.0 -0.5 0.0 0
M  V30 12 C 4.3301 0.0 0.0 0
M  V30 13 C 1.732 -4.4999 0.0 0
M  V30 14 C 3.4641 -4.5 0.0 0
M  V30 15 C -0.866 0.0 0.0 0
M  V30 16 C 0.0 -1.4999 0.0 0
M  V30 17 C 5.3301 0.0 0.0 0
M  V30 18 C 4.8301 0.866 0.0 0
M  V30 19 C 2.598 -5.0 0.0 0
M  V30 20 C -1.732 -0.4999 0.0 0
M  V30 21 C -0.866 -1.9999 0.0 0
M  V30 22 C -1.732 -1.4999 0.0 0
M  V30 END ATOM
M  V30 BEGIN BOND
M  V30 1 2 1 2
M  V30 2 1 1 3
M  V30 3 1 2 4
M  V30 4 1 2 5
M  V30 5 1 3 6
M  V30 6 2 3 7
M  V30 7 2 4 8
M  V30 8 2 5 9
M  V30 9 1 5 10
M  V30 10 1 6 11
M  V30 11 1 8 12
M  V30 12 1 9 13
M  V30 13 2 10 14
M  V30 14 1 11 15
M  V30 15 1 11 16
M  V30 16 1 12 17
M  V30 17 1 12 18
M  V30 18 2 13 19
M  V30 19 1 15 20
M  V30 20 1 16 21
M  V30 21 1 20 22
M  V30 22 1 7 8
M  V30 23 1 14 19
M  V30 24 1 17 18
M  V30 25 1 21 22
M  V30 END BOND
M  V30 END CTAB
M  END
>  <Rack>
PathogenBox_PlateE

>  <Position>
G04

>  <Compound ID>
MMV021013

>  <Disease Set>
TUBERCULOSIS

>  <Trivial Name>


>  <Total Molecular Weight>
294.40

>  <Molecular Weight Parent Molecule>
294.40

>  <Molecular Formula>
C18H22N4

>  <Salt Name>


>  <Salt Coefficient>


>  <cLogP>
3.55

>  <SMILES>
C1CCC(CC1)Nc2cc(nc(n2)c3ccccn3)C4CC4

$$$$
Compound 384
Actelion Java MolfileCreator 2.0

  0  0  0  0  0  0              0 V3000
M  V30 BEGIN CTAB
M  V30 COUNTS 24 27 0 0 0
M  V30 BEGIN ATOM
M  V30 1 O 1.299 0.0 0.0 0
M  V30 2 C 2.598 -0.75 0.0 0
M  V30 3 C 0.0 -0.75 0.0 0
M  V30 4 C 2.598 -2.25 0.0 0
M  V30 5 C 3.8971 0.0 0.0 0
M  V30 6 C 3.8971 -3.0 0.0 0
M  V30 7 C 5.1961 -0.75 0.0 0
M  V30 8 C 3.8971 -4.5 0.0 0
M  V30 9 C 5.1961 -2.25 0.0 0
M  V30 10 N 2.6835 -5.3816 0.0 0
M  V30 11 C 5.1106 -5.3816 0.0 0
M  V30 12 C 3.1471 -6.8082 0.0 0
M  V30 13 C 4.6471 -6.8082 0.0 0
M  V30 14 C 2.3971 -8.1073 0.0 0
M  V30 15 C 5.3971 -8.1073 0.0 0
M  V30 16 C 3.1471 -9.4063 0.0 0
M  V30 17 N 4.6471 -9.4063 0.0 0
M  V30 18 N 6.8971 -8.1073 0.0 0
M  V30 19 C 7.6471 -6.8082 0.0 0
M  V30 20 C 9.1471 -6.8082 0.0 0
M  V30 21 C 6.8971 -5.5092 0.0 0
M  V30 22 N 9.8971 -5.5092 0.0 0
M  V30 23 C 7.6471 -4.2101 0.0 0
M  V30 24 C 9.1471 -4.2101 0.0 0
M  V30 END ATOM
M  V30 BEGIN BOND
M  V30 1 1 1 2
M  V30 2 1 1 3
M  V30 3 2 2 4
M  V30 4 1 2 5
M  V30 5 1 4 6
M  V30 6 2 5 7
M  V30 7 1 6 8
M  V30 8 2 6 9
M  V30 9 1 8 10
M  V30 10 2 8 11
M  V30 11 1 10 12
M  V30 12 1 11 13
M  V30 13 1 12 14
M  V30 14 1 13 15
M  V30 15 2 14 16
M  V30 16 2 15 17
M  V30 17 1 15 18
M  V30 18 1 18 19
M  V30 19 2 19 20
M  V30 20 1 19 21
M  V30 21 1 20 22
M  V30 22 2 21 23
M  V30 23 2 22 24
M  V30 24 1 7 9
M  V30 25 2 12 13
M  V30 26 1 16 17
M  V30 27 1 23 24
M  V30 END BOND
M  V30 END CTAB
M  END
>  <Rack>
PathogenBox_PlateE

>  <Position>
G05

>  <Compound ID>
MMV392832

>  <Disease Set>
MALARIA

>  <Trivial Name>


>  <Total Molecular Weight>
316.36

>  <Molecular Weight Parent Molecule>
316.36

>  <Molecular Formula>
C19H16N4O

>  <Salt Name>


>  <Salt Coefficient>


>  <cLogP>
3.26

>  <SMILES>
COc1cccc(c1)c2cc3c(Nc4cccnc4)nccc3[nH]2

$$$$
Compound 385
Actelion Java MolfileCreator 2.0

  0  0  0  0  0  0              0 V3000
M  V30 BEGIN CTAB
M  V30 COUNTS 29 30 0 0 0
M  V30 BEGIN ATOM
M  V30 1 F -3.6961 -2.25 0.0 0
M  V30 2 C -5.1961 -2.25 0.0 0
M  V30 3 F -5.1961 -3.75 0.0 0
M  V30 4 F -6.6961 -2.25 0.0 0
M  V30 5 C -5.1961 -0.75 0.0 0
M  V30 6 C -3.8971 0.0 0.0 0
M  V30 7 C -6.4951 0.0 0.0 0
M  V30 8 C -3.8971 1.4999 0.0 0
M  V30 9 C -6.4951 1.4999 0.0 0
M  V30 10 C -2.598 2.2499 0.0 0
M  V30 11 C -5.1961 2.2499 0.0 0
M  V30 12 N -1.299 1.4999 0.0 0
M  V30 13 C -2.598 3.7499 0.0 0
M  V30 14 O 0.0 2.2499 0.0 0
M  V30 15 C 1.299 1.4999 0.0 0
M  V30 16 C 2.598 2.25 0.0 0
M  V30 17 C 3.8971 1.5 0.0 0
M  V30 18 C 2.598 3.75 0.0 0
M  V30 19 C 3.8971 0.0 0.0 0
M  V30 20 C 5.1961 2.25 0.0 0
M  V30 21 C 3.8971 4.5 0.0 0
M  V30 22 N 5.1961 -0.75 0.0 0
M  V30 23 C 2.598 -0.75 0.0 0
M  V30 24 C 5.1961 3.75 0.0 0
M  V30 25 O 5.1961 -2.25 0.0 0
M  V30 26 O 2.598 -2.25 0.0 0
M  V30 27 O 1.299 0.0 0.0 0
M  V30 28 C 6.4951 -2.9999 0.0 0
M  V30 29 C 0.0 -0.75 0.0 0
M  V30 END ATOM
M  V30 BEGIN BOND
M  V30 1 1 1 2
M  V30 2 1 2 3
M  V30 3 1 2 4
M  V30 4 1 2 5
M  V30 5 2 5 6
M  V30 6 1 5 7
M  V30 7 1 6 8
M  V30 8 2 7 9
M  V30 9 1 8 10
M  V30 10 2 8 11
M  V30 11 2 10 12
M  V30 12 1 10 13
M  V30 13 1 12 14
M  V30 14 1 14 15
M  V30 15 1 15 16
M  V30 16 2 16 17
M  V30 17 1 16 18
M  V30 18 1 17 19
M  V30 19 1 17 20
M  V30 20 2 18 21
M  V30 21 2 19 22
M  V30 22 1 19 23
M  V30 23 2 20 24
M  V30 24 1 22 25
M  V30 25 2 23 26
M  V30 26 1 23 27
M  V30 27 1 25 28
M  V30 28 1 27 29
M  V30 29 1 9 11
M  V30 30 1 21 24
M  V30 END BOND
M  V30 END CTAB
M  END
>  <Rack>
PathogenBox_PlateE

>  <Position>
G06

>  <Compound ID>
MMV688754

>  <Disease Set>
KINETOPLASTIDS

>  <Trivial Name>
Trifloxystrobin

>  <Total Molecular Weight>
408.37

>  <Molecular Weight Parent Molecule>
408.37

>  <Molecular Formula>
C20H19N2O4F3

>  <Salt Name>


>  <Salt Coefficient>


>  <cLogP>
4.47

>  <SMILES>
CO\N=C(/C(=O)OC)\c1ccccc1CO\N=C(/C)\c2cccc(c2)C(F)(F)F

$$$$
Compound 386
Actelion Java MolfileCreator 2.0

  0  0  0  0  0  0              0 V3000
M  V30 BEGIN CTAB
M  V30 COUNTS 22 23 0 0 0
M  V30 BEGIN ATOM
M  V30 1 F 8.2942 -1.1339 0.0 0
M  V30 2 C 7.7942 -2.0 0.0 0
M  V30 3 F 8.6602 -2.5 0.0 0
M  V30 4 F 7.2942 -2.866 0.0 0
M  V30 5 C 6.9282 -1.5 0.0 0
M  V30 6 C 6.9282 -0.5 0.0 0
M  V30 7 C 6.0621 -2.0 0.0 0
M  V30 8 C 6.0621 0.0 0.0 0
M  V30 9 C 5.1961 -1.5 0.0 0
M  V30 10 C 5.1961 -0.5 0.0 0
M  V30 11 O 4.3301 0.0 0.0 0
M  V30 12 C 3.4641 -0.5 0.0 0 CFG=2
M  V30 13 C 3.4641 -1.5 0.0 0
M  V30 14 C 2.598 0.0 0.0 0
M  V30 15 C 2.598 -1.9999 0.0 0
M  V30 16 C 4.3301 -2.0 0.0 0
M  V30 17 C 1.732 -0.5 0.0 0
M  V30 18 C 2.598 -2.9999 0.0 0
M  V30 19 C 4.3301 -3.0 0.0 0
M  V30 20 N 0.866 0.0 0.0 0
M  V30 21 C 3.4641 -3.5 0.0 0
M  V30 22 C 0.0 -0.5 0.0 0
M  V30 END ATOM
M  V30 BEGIN BOND
M  V30 1 1 1 2
M  V30 2 1 2 3
M  V30 3 1 2 4
M  V30 4 1 2 5
M  V30 5 2 5 6
M  V30 6 1 5 7
M  V30 7 1 6 8
M  V30 8 2 7 9
M  V30 9 2 8 10
M  V30 10 1 10 11
M  V30 11 1 12 11 CFG=3
M  V30 12 1 12 13
M  V30 13 1 12 14
M  V30 14 2 13 15
M  V30 15 1 13 16
M  V30 16 1 14 17
M  V30 17 1 15 18
M  V30 18 2 16 19
M  V30 19 1 17 20
M  V30 20 2 18 21
M  V30 21 1 20 22
M  V30 22 1 9 10
M  V30 23 1 19 21
M  V30 END BOND
M  V30 BEGIN COLLECTION
M  V30 MDLV30/STERAC1 ATOMS=(1 12)
M  V30 END COLLECTION
M  V30 END CTAB
M  END
>  <Rack>
PathogenBox_PlateE

>  <Position>
G07

>  <Compound ID>
MMV001561

>  <Disease Set>
KINETOPLASTIDS

>  <Trivial Name>
Fluoxetine

>  <Total Molecular Weight>
309.33

>  <Molecular Weight Parent Molecule>
309.33

>  <Molecular Formula>
C17H18NOF3

>  <Salt Name>


>  <Salt Coefficient>


>  <cLogP>
3.62

>  <SMILES>
CNCCC(Oc1ccc(cc1)C(F)(F)F)c2ccccc2

$$$$
Compound 387
Actelion Java MolfileCreator 2.0

  0  0  0  0  0  0              0 V3000
M  V30 BEGIN CTAB
M  V30 COUNTS 24 26 0 0 0
M  V30 BEGIN ATOM
M  V30 1 Cl 4.3301 0.9999 0.0 0
M  V30 2 C 4.3301 0.0 0.0 0
M  V30 3 C 3.4641 -0.5 0.0 0
M  V30 4 C 5.1961 -0.5 0.0 0
M  V30 5 N 3.4641 -1.5 0.0 0
M  V30 6 N 2.598 0.0 0.0 0
M  V30 7 N 5.1961 -1.5 0.0 0
M  V30 8 C 6.0621 0.0 0.0 0
M  V30 9 C 4.3301 -2.0 0.0 0
M  V30 10 C 1.732 -0.5 0.0 0
M  V30 11 C 2.598 1.0 0.0 0
M  V30 12 C 4.3301 -3.0 0.0 0
M  V30 13 C 0.866 0.0 0.0 0
M  V30 14 N 3.4641 -3.4999 0.0 0
M  V30 15 C 5.1961 -3.5 0.0 0
M  V30 16 C 0.0 -0.5 0.0 0
M  V30 17 C 3.4641 -4.5 0.0 0
M  V30 18 C 5.1961 -4.5 0.0 0
M  V30 19 C -0.866 0.0 0.0 0
M  V30 20 C 0.0 -1.4999 0.0 0
M  V30 21 C 4.3301 -5.0 0.0 0
M  V30 22 C -1.732 -0.4999 0.0 0
M  V30 23 C -0.866 -1.9999 0.0 0
M  V30 24 C -1.732 -1.4999 0.0 0
M  V30 END ATOM
M  V30 BEGIN BOND
M  V30 1 1 1 2
M  V30 2 2 2 3
M  V30 3 1 2 4
M  V30 4 1 3 5
M  V30 5 1 3 6
M  V30 6 2 4 7
M  V30 7 1 4 8
M  V30 8 2 5 9
M  V30 9 1 6 10
M  V30 10 1 6 11
M  V30 11 1 9 12
M  V30 12 1 10 13
M  V30 13 2 12 14
M  V30 14 1 12 15
M  V30 15 1 13 16
M  V30 16 1 14 17
M  V30 17 2 15 18
M  V30 18 2 16 19
M  V30 19 1 16 20
M  V30 20 2 17 21
M  V30 21 1 19 22
M  V30 22 2 20 23
M  V30 23 2 22 24
M  V30 24 1 7 9
M  V30 25 1 18 21
M  V30 26 1 23 24
M  V30 END BOND
M  V30 END CTAB
M  END
>  <Rack>
PathogenBox_PlateE

>  <Position>
G08

>  <Compound ID>
MMV658988

>  <Disease Set>
KINETOPLASTIDS

>  <Trivial Name>


>  <Total Molecular Weight>
338.84

>  <Molecular Weight Parent Molecule>
338.84

>  <Molecular Formula>
C19H19N4Cl

>  <Salt Name>


>  <Salt Coefficient>


>  <cLogP>
3.93

>  <SMILES>
CN(CCc1ccccc1)c2nc(nc(C)c2Cl)c3ccccn3

$$$$
Compound 388
Actelion Java MolfileCreator 2.0

  0  0  0  0  0  0              0 V3000
M  V30 BEGIN CTAB
M  V30 COUNTS 24 27 0 0 0
M  V30 BEGIN ATOM
M  V30 1 O 3.8971 0.0 0.0 0
M  V30 2 C 2.598 -0.75 0.0 0
M  V30 3 N 1.299 0.0 0.0 0
M  V30 4 C 2.598 -2.25 0.0 0
M  V30 5 C 0.0 -0.75 0.0 0
M  V30 6 C 1.299 -3.0 0.0 0
M  V30 7 C 3.8971 -3.0 0.0 0
M  V30 8 C 0.0 -2.25 0.0 0
M  V30 9 C -1.299 0.0 0.0 0
M  V30 10 C 1.299 -4.5 0.0 0
M  V30 11 C 3.8971 -4.5 0.0 0
M  V30 12 N -1.299 -3.0 0.0 0
M  V30 13 C -2.598 -0.75 0.0 0
M  V30 14 N 0.0 -5.2499 0.0 0
M  V30 15 C 2.598 -5.25 0.0 0
M  V30 16 C -2.598 -2.25 0.0 0
M  V30 17 C -3.8971 0.0 0.0 0
M  V30 18 N -1.3703 -4.6398 0.0 0
M  V30 19 C -0.1567 -6.7417 0.0 0
M  V30 20 C -3.8971 -3.0 0.0 0
M  V30 21 C -5.1961 -0.75 0.0 0
M  V30 22 N -2.374 -5.7546 0.0 0
M  V30 23 N -1.624 -7.0536 0.0 0
M  V30 24 C -5.1961 -2.25 0.0 0
M  V30 END ATOM
M  V30 BEGIN BOND
M  V30 1 2 1 2
M  V30 2 1 2 3
M  V30 3 1 2 4
M  V30 4 1 3 5
M  V30 5 2 4 6
M  V30 6 1 4 7
M  V30 7 1 5 8
M  V30 8 2 5 9
M  V30 9 1 6 10
M  V30 10 2 7 11
M  V30 11 2 8 12
M  V30 12 1 9 13
M  V30 13 1 10 14
M  V30 14 2 10 15
M  V30 15 1 12 16
M  V30 16 2 13 17
M  V30 17 1 14 18
M  V30 18 1 14 19
M  V30 19 2 16 20
M  V30 20 1 17 21
M  V30 21 2 18 22
M  V30 22 2 19 23
M  V30 23 1 20 24
M  V30 24 1 11 15
M  V30 25 1 13 16
M  V30 26 2 21 24
M  V30 27 1 22 23
M  V30 END BOND
M  V30 END CTAB
M  END
>  <Rack>
PathogenBox_PlateE

>  <Position>
G09

>  <Compound ID>
MMV084864

>  <Disease Set>
MALARIA

>  <Trivial Name>


>  <Total Molecular Weight>
316.32

>  <Molecular Weight Parent Molecule>
316.32

>  <Molecular Formula>
C17H12N6O

>  <Salt Name>


>  <Salt Coefficient>


>  <cLogP>
2.02

>  <SMILES>
O=C(Nc1cnc2ccccc2c1)c3cccc(c3)n4cnnn4

$$$$
Compound 389
Actelion Java MolfileCreator 2.0

  0  0  0  0  0  0              0 V3000
M  V30 BEGIN CTAB
M  V30 COUNTS 17 18 0 0 0
M  V30 BEGIN ATOM
M  V30 1 Br 3.4641 2.5 0.0 0
M  V30 2 C 3.4641 1.5 0.0 0
M  V30 3 C 2.598 1.0 0.0 0
M  V30 4 C 4.3301 1.0 0.0 0
M  V30 5 C 2.598 0.0 0.0 0
M  V30 6 C 4.3301 0.0 0.0 0
M  V30 7 C 3.4641 -0.4999 0.0 0
M  V30 8 C 1.732 -0.5 0.0 0
M  V30 9 Cl 3.4641 -1.5 0.0 0
M  V30 10 O 1.732 -1.5 0.0 0
M  V30 11 N 0.866 0.0 0.0 0
M  V30 12 C 0.0 -0.5 0.0 0
M  V30 13 S -0.9135 -0.0932 0.0 0
M  V30 14 N -0.1045 -1.4945 0.0 0
M  V30 15 C -1.5826 -0.8364 0.0 0
M  V30 16 N -1.0826 -1.7024 0.0 0
M  V30 17 S -2.5771 -0.7318 0.0 0
M  V30 END ATOM
M  V30 BEGIN BOND
M  V30 1 1 1 2
M  V30 2 2 2 3
M  V30 3 1 2 4
M  V30 4 1 3 5
M  V30 5 2 4 6
M  V30 6 2 5 7
M  V30 7 1 5 8
M  V30 8 1 7 9
M  V30 9 2 8 10
M  V30 10 1 8 11
M  V30 11 1 11 12
M  V30 12 1 12 13
M  V30 13 2 12 14
M  V30 14 1 13 15
M  V30 15 1 14 16
M  V30 16 1 15 17
M  V30 17 1 6 7
M  V30 18 2 15 16
M  V30 END BOND
M  V30 END CTAB
M  END
>  <Rack>
PathogenBox_PlateE

>  <Position>
G10

>  <Compound ID>
MMV676492

>  <Disease Set>
LYMPHATIC FILARIASIS

>  <Trivial Name>


>  <Total Molecular Weight>
350.64

>  <Molecular Weight Parent Molecule>
350.64

>  <Molecular Formula>
C9H5N3OBrClS2

>  <Salt Name>


>  <Salt Coefficient>


>  <cLogP>
3.42

>  <SMILES>
Sc1nnc(NC(=O)c2cc(Br)ccc2Cl)s1

$$$$
Compound 390
Actelion Java MolfileCreator 2.0

  0  0  0  0  0  0              0 V3000
M  V30 BEGIN CTAB
M  V30 COUNTS 32 36 0 0 0
M  V30 BEGIN ATOM
M  V30 1 O 0.866 0.0 0.0 0
M  V30 2 C 1.732 -0.5 0.0 0 CFG=1
M  V30 3 C 0.0 -0.5 0.0 0
M  V30 4 C 1.8365 -1.4945 0.0 0 CFG=2
M  V30 5 C 2.6455 -0.0932 0.0 0
M  V30 6 O 1.0934 -2.1636 0.0 0
M  V30 7 C 2.8147 -1.7024 0.0 0
M  V30 8 N 3.3147 -0.8364 0.0 0
M  V30 9 C 4.3092 -0.7318 0.0 0
M  V30 10 N 4.897 -1.5408 0.0 0
M  V30 11 C 4.7159 0.1816 0.0 0
M  V30 12 C 5.8915 -1.4363 0.0 0
M  V30 13 C 5.7105 0.2861 0.0 0
M  V30 14 C 6.2982 -0.5228 0.0 0
M  V30 15 C 6.4793 -2.2453 0.0 0
M  V30 16 C 7.2928 -0.4182 0.0 0
M  V30 17 C 7.4738 -2.1408 0.0 0
M  V30 18 C 8.2873 -0.3137 0.0 0
M  V30 19 C 8.0616 -2.9498 0.0 0
M  V30 20 C 7.8805 -1.2273 0.0 0
M  V30 21 C 9.2818 -0.2092 0.0 0
M  V30 22 C 9.0561 -2.8453 0.0 0
M  V30 23 C 8.8751 -1.1227 0.0 0
M  V30 24 O 8.694 0.5997 0.0 0
M  V30 25 C 9.8696 -1.0182 0.0 0
M  V30 26 C 9.6885 0.7043 0.0 0
M  V30 27 C 9.4629 -1.9317 0.0 0
M  V30 28 C 10.882 -0.785 0.0 0
M  V30 29 C 11.6553 -1.2659 0.0 0
M  V30 30 N 10.6831 0.8088 0.0 0
M  V30 31 C 11.1872 -0.0995 0.0 0
M  V30 32 C 12.062 -0.3524 0.0 0
M  V30 END ATOM
M  V30 BEGIN BOND
M  V30 1 1 2 1 CFG=3
M  V30 2 1 1 3
M  V30 3 1 4 2
M  V30 4 1 2 5
M  V30 5 1 4 6 CFG=1
M  V30 6 1 4 7
M  V30 7 1 5 8
M  V30 8 1 8 9
M  V30 9 2 9 10
M  V30 10 1 9 11
M  V30 11 1 10 12
M  V30 12 2 11 13
M  V30 13 2 12 14
M  V30 14 1 12 15
M  V30 15 1 14 16
M  V30 16 1 15 17
M  V30 17 3 16 18
M  V30 18 2 17 19
M  V30 19 1 17 20
M  V30 20 1 18 21
M  V30 21 1 19 22
M  V30 22 2 20 23
M  V30 23 1 21 24
M  V30 24 1 21 25
M  V30 25 1 21 26
M  V30 26 2 22 27
M  V30 27 1 25 28
M  V30 28 1 25 29
M  V30 29 1 26 30
M  V30 30 1 28 31
M  V30 31 1 29 32
M  V30 32 1 7 8
M  V30 33 1 13 14
M  V30 34 1 23 27
M  V30 35 1 30 31
M  V30 36 1 30 32
M  V30 END BOND
M  V30 BEGIN COLLECTION
M  V30 MDLV30/STEABS ATOMS=(2 2 4)
M  V30 END COLLECTION
M  V30 END CTAB
M  END
>  <Rack>
PathogenBox_PlateE

>  <Position>
G11

>  <Compound ID>
MMV688415

>  <Disease Set>
KINETOPLASTIDS

>  <Trivial Name>


>  <Total Molecular Weight>
433.54

>  <Molecular Weight Parent Molecule>
433.54

>  <Molecular Formula>
C26H31N3O3

>  <Salt Name>


>  <Salt Coefficient>


>  <cLogP>
2.71

>  <SMILES>
CO[C@@H]1CN(C[C@H]1O)c2ccc(C#CC3(O)CN4CCC3CC4)c(Cc5ccccc5)n2

$$$$
Compound 391
Actelion Java MolfileCreator 2.0

  0  0  0  0  0  0              0 V3000
M  V30 BEGIN CTAB
M  V30 COUNTS 24 26 0 0 0
M  V30 BEGIN ATOM
M  V30 1 Cl 4.3301 -1.9999 0.0 0
M  V30 2 C 3.4641 -1.4999 0.0 0
M  V30 3 C 3.4641 -0.5 0.0 0
M  V30 4 C 2.598 -1.9999 0.0 0
M  V30 5 C 2.598 0.0 0.0 0
M  V30 6 C 1.732 -1.5 0.0 0
M  V30 7 O 2.598 1.0 0.0 0
M  V30 8 C 1.732 -0.5 0.0 0
M  V30 9 O 0.866 0.0 0.0 0
M  V30 10 C 0.0 -0.5 0.0 0
M  V30 11 C -0.866 0.0 0.0 0
M  V30 12 C 0.0 -1.4999 0.0 0
M  V30 13 C -1.732 -0.4999 0.0 0
M  V30 14 C -0.866 -1.9999 0.0 0
M  V30 15 C -1.732 -1.4999 0.0 0
M  V30 16 N -2.598 -1.9999 0.0 0
M  V30 17 C -3.4641 -1.4999 0.0 0
M  V30 18 C -2.598 -2.9999 0.0 0
M  V30 19 C -4.3301 -1.9999 0.0 0
M  V30 20 C -3.4641 -3.4999 0.0 0
M  V30 21 N -4.3301 -2.9999 0.0 0
M  V30 22 C -5.1961 -3.4999 0.0 0
M  V30 23 O -6.0621 -2.9999 0.0 0
M  V30 24 C -5.1961 -4.4999 0.0 0
M  V30 END ATOM
M  V30 BEGIN BOND
M  V30 1 1 1 2
M  V30 2 2 2 3
M  V30 3 1 2 4
M  V30 4 1 3 5
M  V30 5 2 4 6
M  V30 6 1 5 7
M  V30 7 2 5 8
M  V30 8 1 8 9
M  V30 9 1 9 10
M  V30 10 2 10 11
M  V30 11 1 10 12
M  V30 12 1 11 13
M  V30 13 2 12 14
M  V30 14 2 13 15
M  V30 15 1 15 16
M  V30 16 1 16 17
M  V30 17 1 16 18
M  V30 18 1 17 19
M  V30 19 1 18 20
M  V30 20 1 19 21
M  V30 21 1 21 22
M  V30 22 2 22 23
M  V30 23 1 22 24
M  V30 24 1 6 8
M  V30 25 1 14 15
M  V30 26 1 20 21
M  V30 END BOND
M  V30 END CTAB
M  END
>  <Rack>
PathogenBox_PlateE

>  <Position>
H02

>  <Compound ID>
MMV688330

>  <Disease Set>
TOXOPLASMOSIS

>  <Trivial Name>


>  <Total Molecular Weight>
346.81

>  <Molecular Weight Parent Molecule>
346.81

>  <Molecular Formula>
C18H19N2O3Cl

>  <Salt Name>


>  <Salt Coefficient>


>  <cLogP>
3.15

>  <SMILES>
CC(=O)N1CCN(CC1)c1ccc(Oc2ccc(Cl)cc2O)cc1

$$$$
Compound 392
Actelion Java MolfileCreator 2.0

  0  0  0  0  0  0              0 V3000
M  V30 BEGIN CTAB
M  V30 COUNTS 40 42 0 0 0
M  V30 BEGIN ATOM
M  V30 1 O 3.4641 -1.5 0.0 0
M  V30 2 C 3.4641 -0.5 0.0 0
M  V30 3 N 4.3301 0.0 0.0 0
M  V30 4 C 2.598 0.0 0.0 0
M  V30 5 C 5.1961 -0.5 0.0 0 CFG=1
M  V30 6 O 2.598 1.0 0.0 0
M  V30 7 C 1.732 -0.5 0.0 0
M  V30 8 C 5.1961 -1.5 0.0 0
M  V30 9 C 6.0621 0.0 0.0 0
M  V30 10 C 0.866 0.0 0.0 0
M  V30 11 O 4.3301 -1.9999 0.0 0
M  V30 12 C 6.0621 -2.0 0.0 0 CFG=1
M  V30 13 C 6.9282 -0.5 0.0 0 CFG=1
M  V30 14 N 0.0 -0.5 0.0 0
M  V30 15 C 4.3301 -2.9999 0.0 0
M  V30 16 O 6.0621 -3.0 0.0 0
M  V30 17 C 6.9282 -1.5 0.0 0 CFG=1
M  V30 18 N 7.7942 0.0 0.0 0
M  V30 19 O 5.1961 -3.5 0.0 0
M  V30 20 C 3.4641 -3.4999 0.0 0 CFG=2
M  V30 21 O 7.7942 -2.0 0.0 0
M  V30 22 C 5.1961 -4.5 0.0 0 CFG=1
M  V30 23 O 2.598 -2.9999 0.0 0
M  V30 24 C 3.4641 -4.4999 0.0 0 CFG=2
M  V30 25 C 8.6602 -1.5 0.0 0
M  V30 26 C 4.3301 -4.9999 0.0 0 CFG=2
M  V30 27 C 6.0621 -5.0 0.0 0
M  V30 28 N 2.598 -4.9999 0.0 0
M  V30 29 O 8.6602 -0.5 0.0 0
M  V30 30 C 9.5262 -2.0 0.0 0 CFG=2
M  V30 31 O 4.3301 -5.9999 0.0 0
M  V30 32 O 6.0621 -6.0 0.0 0
M  V30 33 C 9.5262 0.0 0.0 0 CFG=1
M  V30 34 O 9.5262 -3.0 0.0 0
M  V30 35 C 10.3923 -1.4999 0.0 0 CFG=2
M  V30 36 C 10.3923 -0.5 0.0 0 CFG=2
M  V30 37 C 9.5262 1.0 0.0 0
M  V30 38 O 11.2583 -2.0 0.0 0
M  V30 39 O 11.2583 0.0 0.0 0
M  V30 40 N 10.3923 1.5 0.0 0
M  V30 END ATOM
M  V30 BEGIN BOND
M  V30 1 2 1 2
M  V30 2 1 2 3
M  V30 3 1 2 4
M  V30 4 1 5 3 CFG=3
M  V30 5 1 4 6
M  V30 6 1 4 7
M  V30 7 1 5 8
M  V30 8 1 5 9
M  V30 9 1 7 10
M  V30 10 1 8 11
M  V30 11 1 12 8
M  V30 12 1 13 9
M  V30 13 1 10 14
M  V30 14 1 11 15
M  V30 15 1 12 16 CFG=3
M  V30 16 1 17 12
M  V30 17 1 13 18 CFG=3
M  V30 18 1 15 19
M  V30 19 1 20 15
M  V30 20 1 17 21 CFG=1
M  V30 21 1 22 19
M  V30 22 1 20 23 CFG=1
M  V30 23 1 24 20
M  V30 24 1 21 25
M  V30 25 1 26 22
M  V30 26 1 22 27 CFG=3
M  V30 27 1 24 28 CFG=3
M  V30 28 1 25 29
M  V30 29 1 30 25
M  V30 30 1 26 31 CFG=1
M  V30 31 1 27 32
M  V30 32 1 33 29
M  V30 33 1 30 34 CFG=1
M  V30 34 1 35 30
M  V30 35 1 36 33
M  V30 36 1 33 37 CFG=3
M  V30 37 1 35 38 CFG=3
M  V30 38 1 36 39 CFG=1
M  V30 39 1 37 40
M  V30 40 1 13 17
M  V30 41 1 24 26
M  V30 42 1 35 36
M  V30 END BOND
M  V30 BEGIN COLLECTION
M  V30 MDLV30/STEABS ATOMS=(12 5 12 13 17 20 22 24 26 30 33 35 36)
M  V30 END COLLECTION
M  V30 END CTAB
M  END
>  <Rack>
PathogenBox_PlateE

>  <Position>
H03

>  <Compound ID>
MMV687796

>  <Disease Set>
REFERENCE COMPOUNDS

>  <Trivial Name>
Amikacin

>  <Total Molecular Weight>
781.76

>  <Molecular Weight Parent Molecule>
585.60

>  <Molecular Formula>
C22H43N5O13

>  <Salt Name>
Sulfuric Acid

>  <Salt Coefficient>
2

>  <cLogP>
-8.50

>  <SMILES>
NCCC(O)C(=O)N[C@@H]1C[C@H](N)[C@@H](OC2O[C@H](CN)[C@@H](O)[C@H](O)[C@H]2O)[C@H](O)C1OC3O[C@H](CO)[C@@H](O)[C@H](N)[C@H]3O

$$$$
Compound 393
Actelion Java MolfileCreator 2.0

  0  0  0  0  0  0              0 V3000
M  V30 BEGIN CTAB
M  V30 COUNTS 23 26 0 0 0
M  V30 BEGIN ATOM
M  V30 1 N 2.6455 -0.0932 0.0 0
M  V30 2 N 1.732 -0.5 0.0 0
M  V30 3 C 3.3147 -0.8364 0.0 0
M  V30 4 C 1.8365 -1.4945 0.0 0
M  V30 5 C 0.866 0.0 0.0 0
M  V30 6 C 4.3092 -0.7318 0.0 0
M  V30 7 C 2.8147 -1.7024 0.0 0
M  V30 8 C 0.0 -0.5 0.0 0
M  V30 9 N 4.9783 -1.475 0.0 0
M  V30 10 C 4.8092 0.1341 0.0 0
M  V30 11 C -0.866 0.0 0.0 0
M  V30 12 C 0.0 -1.4999 0.0 0
M  V30 13 C 5.8919 -1.0682 0.0 0
M  V30 14 C 4.8738 -2.4695 0.0 0
M  V30 15 N 5.7873 -0.0737 0.0 0
M  V30 16 C 4.4025 1.0476 0.0 0
M  V30 17 C -1.732 -0.4999 0.0 0
M  V30 18 C -0.866 -1.9999 0.0 0
M  V30 19 C 6.7009 -1.656 0.0 0
M  V30 20 C 5.6828 -3.0573 0.0 0
M  V30 21 C -1.732 -1.4999 0.0 0
M  V30 22 C 6.5964 -2.6505 0.0 0
M  V30 23 C 5.5783 -4.0518 0.0 0
M  V30 END ATOM
M  V30 BEGIN BOND
M  V30 1 1 1 2
M  V30 2 2 1 3
M  V30 3 1 2 4
M  V30 4 1 2 5
M  V30 5 1 3 6
M  V30 6 1 3 7
M  V30 7 1 5 8
M  V30 8 1 6 9
M  V30 9 2 6 10
M  V30 10 2 8 11
M  V30 11 1 8 12
M  V30 12 1 9 13
M  V30 13 1 9 14
M  V30 14 1 10 15
M  V30 15 1 10 16
M  V30 16 1 11 17
M  V30 17 2 12 18
M  V30 18 1 13 19
M  V30 19 2 14 20
M  V30 20 2 17 21
M  V30 21 2 19 22
M  V30 22 1 20 23
M  V30 23 2 4 7
M  V30 24 2 13 15
M  V30 25 1 18 21
M  V30 26 1 20 22
M  V30 END BOND
M  V30 END CTAB
M  END
>  <Rack>
PathogenBox_PlateE

>  <Position>
H04

>  <Compound ID>
MMV688939

>  <Disease Set>
TUBERCULOSIS

>  <Trivial Name>


>  <Total Molecular Weight>
302.37

>  <Molecular Weight Parent Molecule>
302.37

>  <Molecular Formula>
C19H18N4

>  <Salt Name>


>  <Salt Coefficient>


>  <cLogP>
2.60

>  <SMILES>
Cc1ccc2nc(C)c(c3ccn(Cc4ccccc4)n3)n2c1

$$$$
Compound 394
Actelion Java MolfileCreator 2.0

  0  0  0  0  0  0              0 V3000
M  V30 BEGIN CTAB
M  V30 COUNTS 32 32 0 0 0
M  V30 BEGIN ATOM
M  V30 1 Au 2.598 0.0 0.0 0
M  V30 2 S 3.4641 -0.5 0.0 0
M  V30 3 P 1.732 -0.5 0.0 0
M  V30 4 C 4.3301 0.0 0.0 0 CFG=1
M  V30 5 C 1.732 -1.5 0.0 0
M  V30 6 C 2.598 -0.9999 0.0 0
M  V30 7 C 0.866 0.0 0.0 0
M  V30 8 O 5.1961 -0.4999 0.0 0
M  V30 9 C 4.3301 0.9999 0.0 0 CFG=1
M  V30 10 C 0.866 -1.9999 0.0 0
M  V30 11 C 2.598 -1.9999 0.0 0
M  V30 12 C 0.0 -0.5 0.0 0
M  V30 13 C 6.0621 0.0 0.0 0 CFG=2
M  V30 14 O 3.4641 1.4999 0.0 0
M  V30 15 C 5.1961 1.4999 0.0 0 CFG=1
M  V30 16 C 6.0621 1.0 0.0 0 CFG=1
M  V30 17 C 6.9282 -0.5 0.0 0
M  V30 18 C 3.4641 2.4999 0.0 0
M  V30 19 O 5.1961 2.4999 0.0 0
M  V30 20 O 6.9282 1.5 0.0 0
M  V30 21 O 6.9282 -1.4999 0.0 0
M  V30 22 O 4.3301 2.9999 0.0 0
M  V30 23 C 2.598 2.9999 0.0 0
M  V30 24 C 6.0621 3.0 0.0 0
M  V30 25 C 7.7942 1.0 0.0 0
M  V30 26 C 7.7942 -1.9999 0.0 0
M  V30 27 O 6.9282 2.5 0.0 0
M  V30 28 C 6.0621 4.0 0.0 0
M  V30 29 O 7.7942 0.0 0.0 0
M  V30 30 C 8.6602 1.5 0.0 0
M  V30 31 O 8.6602 -1.4999 0.0 0
M  V30 32 C 7.7942 -2.9999 0.0 0
M  V30 END ATOM
M  V30 BEGIN BOND
M  V30 1 1 1 2
M  V30 2 2 1 3
M  V30 3 1 4 2 CFG=3
M  V30 4 1 3 5
M  V30 5 1 3 6
M  V30 6 1 3 7
M  V30 7 1 4 8
M  V30 8 1 9 4
M  V30 9 1 5 10
M  V30 10 1 6 11
M  V30 11 1 7 12
M  V30 12 1 13 8
M  V30 13 1 9 14 CFG=1
M  V30 14 1 15 9
M  V30 15 1 16 13
M  V30 16 1 13 17 CFG=3
M  V30 17 1 14 18
M  V30 18 1 15 19 CFG=3
M  V30 19 1 16 20 CFG=1
M  V30 20 1 17 21
M  V30 21 2 18 22
M  V30 22 1 18 23
M  V30 23 1 19 24
M  V30 24 1 20 25
M  V30 25 1 21 26
M  V30 26 2 24 27
M  V30 27 1 24 28
M  V30 28 2 25 29
M  V30 29 1 25 30
M  V30 30 2 26 31
M  V30 31 1 26 32
M  V30 32 1 15 16
M  V30 END BOND
M  V30 BEGIN COLLECTION
M  V30 MDLV30/STEABS ATOMS=(5 4 9 13 15 16)
M  V30 END COLLECTION
M  V30 END CTAB
M  END
>  <Rack>
PathogenBox_PlateE

>  <Position>
H05

>  <Compound ID>
MMV688978

>  <Disease Set>
REFERENCE COMPOUNDS

>  <Trivial Name>
Auranofin

>  <Total Molecular Weight>
678.48

>  <Molecular Weight Parent Molecule>
678.48

>  <Molecular Formula>
C20H34AuO9PS

>  <Salt Name>


>  <Salt Coefficient>


>  <cLogP>
1.40

>  <SMILES>
CCP(=[Au]S[C@H]1O[C@@H](COC(=O)C)[C@H](OC(=O)C)[C@@H](OC(=O)C)[C@@H]1OC(=O)C)(CC)CC

$$$$
Compound 395
Actelion Java MolfileCreator 2.0

  0  0  0  0  0  0              0 V3000
M  V30 BEGIN CTAB
M  V30 COUNTS 27 26 0 0 0
M  V30 BEGIN ATOM
M  V30 1 P 22.0836 0.0 0.0 0 CFG=2
M  V30 2 O 22.8336 1.299 0.0 0
M  V30 3 O 23.3827 -0.75 0.0 0
M  V30 4 O 20.7846 -0.75 0.0 0
M  V30 5 O 21.3336 1.299 0.0 0 CHG=-1
M  V30 6 C 24.6817 0.0 0.0 0
M  V30 7 C 19.4856 0.0 0.0 0
M  V30 8 C 25.9808 -0.75 0.0 0
M  V30 9 C 18.1865 -0.75 0.0 0
M  V30 10 N 27.2798 0.0 0.0 0 CHG=1
M  V30 11 C 16.8875 0.0 0.0 0
M  V30 12 C 26.5298 1.299 0.0 0
M  V30 13 C 28.5788 0.75 0.0 0
M  V30 14 C 28.0298 -1.299 0.0 0
M  V30 15 C 15.5884 -0.75 0.0 0
M  V30 16 C 14.2894 0.0 0.0 0
M  V30 17 C 12.9904 -0.75 0.0 0
M  V30 18 C 11.6913 0.0 0.0 0
M  V30 19 C 10.3923 -0.75 0.0 0
M  V30 20 C 9.0932 0.0 0.0 0
M  V30 21 C 7.7942 -0.75 0.0 0
M  V30 22 C 6.4952 0.0 0.0 0
M  V30 23 C 5.1961 -0.75 0.0 0
M  V30 24 C 3.8971 0.0 0.0 0
M  V30 25 C 2.598 -0.75 0.0 0
M  V30 26 C 1.299 0.0 0.0 0
M  V30 27 C 0.0 -0.75 0.0 0
M  V30 END ATOM
M  V30 BEGIN BOND
M  V30 1 2 1 2
M  V30 2 1 1 3
M  V30 3 1 1 4
M  V30 4 1 1 5 CFG=1
M  V30 5 1 3 6
M  V30 6 1 4 7
M  V30 7 1 6 8
M  V30 8 1 7 9
M  V30 9 1 8 10
M  V30 10 1 9 11
M  V30 11 1 10 12
M  V30 12 1 10 13
M  V30 13 1 10 14
M  V30 14 1 11 15
M  V30 15 1 15 16
M  V30 16 1 16 17
M  V30 17 1 17 18
M  V30 18 1 18 19
M  V30 19 1 19 20
M  V30 20 1 20 21
M  V30 21 1 21 22
M  V30 22 1 22 23
M  V30 23 1 23 24
M  V30 24 1 24 25
M  V30 25 1 25 26
M  V30 26 1 26 27
M  V30 END BOND
M  V30 BEGIN COLLECTION
M  V30 MDLV30/STERAC1 ATOMS=(1 1)
M  V30 END COLLECTION
M  V30 END CTAB
M  END
>  <Rack>
PathogenBox_PlateE

>  <Position>
H06

>  <Compound ID>
MMV688990

>  <Disease Set>
REFERENCE COMPOUNDS

>  <Trivial Name>
Miltefosine

>  <Total Molecular Weight>
407.57

>  <Molecular Weight Parent Molecule>
407.57

>  <Molecular Formula>
C21H46NO4P

>  <Salt Name>


>  <Salt Coefficient>


>  <cLogP>
0.12

>  <SMILES>
CCCCCCCCCCCCCCCCOP(=O)([O-])OCC[N+](C)(C)C

$$$$
Compound 396
Actelion Java MolfileCreator 2.0

  0  0  0  0  0  0              0 V3000
M  V30 BEGIN CTAB
M  V30 COUNTS 28 31 0 0 0
M  V30 BEGIN ATOM
M  V30 1 Cl 1.732 1.4999 0.0 0
M  V30 2 C 2.598 1.0 0.0 0
M  V30 3 C 2.598 0.0 0.0 0
M  V30 4 C 3.4641 1.4999 0.0 0
M  V30 5 O 1.732 -0.5 0.0 0
M  V30 6 C 3.4641 -0.5 0.0 0
M  V30 7 C 4.3301 1.0 0.0 0
M  V30 8 C 0.866 0.0 0.0 0
M  V30 9 C 4.3301 0.0 0.0 0
M  V30 10 N 5.1961 1.5 0.0 0
M  V30 11 C 0.0 -0.5 0.0 0
M  V30 12 C 5.1961 2.5 0.0 0
M  V30 13 C -0.866 0.0 0.0 0
M  V30 14 C 0.0 -1.4999 0.0 0
M  V30 15 N 6.0621 3.0 0.0 0
M  V30 16 C 4.3301 3.0 0.0 0
M  V30 17 C -1.732 -0.4999 0.0 0
M  V30 18 C -0.866 -1.9999 0.0 0
M  V30 19 C 6.0621 4.0 0.0 0
M  V30 20 C 4.3301 4.0 0.0 0
M  V30 21 C 3.4641 2.5 0.0 0
M  V30 22 F -2.598 0.0 0.0 0
M  V30 23 C -1.732 -1.4999 0.0 0
M  V30 24 N 5.1961 4.5 0.0 0
M  V30 25 C 3.4641 4.5 0.0 0
M  V30 26 C 2.598 3.0 0.0 0
M  V30 27 C 2.598 4.0 0.0 0
M  V30 28 N 1.732 2.5 0.0 0
M  V30 END ATOM
M  V30 BEGIN BOND
M  V30 1 1 1 2
M  V30 2 2 2 3
M  V30 3 1 2 4
M  V30 4 1 3 5
M  V30 5 1 3 6
M  V30 6 2 4 7
M  V30 7 1 5 8
M  V30 8 2 6 9
M  V30 9 1 7 10
M  V30 10 1 8 11
M  V30 11 1 10 12
M  V30 12 2 11 13
M  V30 13 1 11 14
M  V30 14 2 12 15
M  V30 15 1 12 16
M  V30 16 1 13 17
M  V30 17 2 14 18
M  V30 18 1 15 19
M  V30 19 1 16 20
M  V30 20 2 16 21
M  V30 21 1 17 22
M  V30 22 2 17 23
M  V30 23 2 19 24
M  V30 24 2 20 25
M  V30 25 1 21 26
M  V30 26 1 25 27
M  V30 27 1 26 28
M  V30 28 1 7 9
M  V30 29 1 18 23
M  V30 30 1 20 24
M  V30 31 2 26 27
M  V30 END BOND
M  V30 END CTAB
M  END
>  <Rack>
PathogenBox_PlateE

>  <Position>
H07

>  <Compound ID>
MMV688273

>  <Disease Set>
KINETOPLASTIDS

>  <Trivial Name>


>  <Total Molecular Weight>
394.83

>  <Molecular Weight Parent Molecule>
394.83

>  <Molecular Formula>
C21H16N4OClF

>  <Salt Name>


>  <Salt Coefficient>


>  <cLogP>
4.67

>  <SMILES>
Nc1ccc2ncnc(Nc3ccc(OCc4cccc(F)c4)c(Cl)c3)c2c1

$$$$
Compound 397
Actelion Java MolfileCreator 2.0

  0  0  0  0  0  0              0 V3000
M  V30 BEGIN CTAB
M  V30 COUNTS 15 16 0 0 0
M  V30 BEGIN ATOM
M  V30 1 O 1.732 2.4999 0.0 0
M  V30 2 C 1.732 1.4999 0.0 0
M  V30 3 N 0.866 1.0 0.0 0
M  V30 4 C 2.598 0.9999 0.0 0
M  V30 5 C 0.866 0.0 0.0 0
M  V30 6 C 2.598 0.0 0.0 0
M  V30 7 N 1.732 -0.5 0.0 0
M  V30 8 N 0.0 -0.5 0.0 0
M  V30 9 C 3.4641 -0.5 0.0 0
M  V30 10 N -0.9135 -0.0932 0.0 0
M  V30 11 C -0.1045 -1.4945 0.0 0
M  V30 12 C -1.5826 -0.8364 0.0 0
M  V30 13 C -1.0826 -1.7024 0.0 0
M  V30 14 C 0.6386 -2.1636 0.0 0
M  V30 15 C -2.5771 -0.7318 0.0 0
M  V30 END ATOM
M  V30 BEGIN BOND
M  V30 1 1 1 2
M  V30 2 2 2 3
M  V30 3 1 2 4
M  V30 4 1 3 5
M  V30 5 2 4 6
M  V30 6 2 5 7
M  V30 7 1 5 8
M  V30 8 1 6 9
M  V30 9 1 8 10
M  V30 10 1 8 11
M  V30 11 2 10 12
M  V30 12 2 11 13
M  V30 13 1 11 14
M  V30 14 1 12 15
M  V30 15 1 6 7
M  V30 16 1 12 13
M  V30 END BOND
M  V30 END CTAB
M  END
>  <Rack>
PathogenBox_PlateE

>  <Position>
H08

>  <Compound ID>
MMV393995

>  <Disease Set>
TUBERCULOSIS

>  <Trivial Name>


>  <Total Molecular Weight>
204.23

>  <Molecular Weight Parent Molecule>
204.23

>  <Molecular Formula>
C10H12N4O

>  <Salt Name>


>  <Salt Coefficient>


>  <cLogP>
1.10

>  <SMILES>
Cc1cc(O)nc(n1)n2nc(C)cc2C

$$$$
Compound 398
Actelion Java MolfileCreator 2.0

  0  0  0  0  0  0              0 V3000
M  V30 BEGIN CTAB
M  V30 COUNTS 17 18 0 0 0
M  V30 BEGIN ATOM
M  V30 1 O 1.732 -0.5 0.0 0
M  V30 2 C 2.598 0.0 0.0 0
M  V30 3 O 3.4641 -0.4999 0.0 0
M  V30 4 C 2.598 1.0 0.0 0
M  V30 5 C 4.3301 0.0 0.0 0
M  V30 6 N 3.407 1.5877 0.0 0
M  V30 7 C 1.789 1.5877 0.0 0
M  V30 8 C 5.1961 -0.4999 0.0 0
M  V30 9 O 3.098 2.5388 0.0 0
M  V30 10 C 0.838 1.2787 0.0 0
M  V30 11 C 2.098 2.5388 0.0 0
M  V30 12 C 0.0948 1.9478 0.0 0
M  V30 13 C 0.63 0.3006 0.0 0
M  V30 14 N 1.5102 3.3478 0.0 0
M  V30 15 C -0.8561 1.6388 0.0 0
M  V30 16 C -0.3209 -0.0083 0.0 0
M  V30 17 C -1.0641 0.6607 0.0 0
M  V30 END ATOM
M  V30 BEGIN BOND
M  V30 1 2 1 2
M  V30 2 1 2 3
M  V30 3 1 2 4
M  V30 4 1 3 5
M  V30 5 2 4 6
M  V30 6 1 4 7
M  V30 7 1 5 8
M  V30 8 1 6 9
M  V30 9 1 7 10
M  V30 10 2 7 11
M  V30 11 2 10 12
M  V30 12 1 10 13
M  V30 13 1 11 14
M  V30 14 1 12 15
M  V30 15 2 13 16
M  V30 16 2 15 17
M  V30 17 1 9 11
M  V30 18 1 16 17
M  V30 END BOND
M  V30 END CTAB
M  END
>  <Rack>
PathogenBox_PlateE

>  <Position>
H09

>  <Compound ID>
MMV1236379

>  <Disease Set>
KINETOPLASTIDS

>  <Trivial Name>


>  <Total Molecular Weight>
232.24

>  <Molecular Weight Parent Molecule>
232.24

>  <Molecular Formula>
C12H12N2O3

>  <Salt Name>


>  <Salt Coefficient>


>  <cLogP>
1.78

>  <SMILES>
CCOC(=O)c1noc(N)c1c2ccccc2

$$$$
Compound 399
Actelion Java MolfileCreator 2.0

  0  0  0  0  0  0              0 V3000
M  V30 BEGIN CTAB
M  V30 COUNTS 32 35 0 0 0
M  V30 BEGIN ATOM
M  V30 1 O 0.866 0.9999 0.0 0
M  V30 2 C 1.732 1.4999 0.0 0
M  V30 3 N 2.598 1.0 0.0 0
M  V30 4 N 1.732 2.4999 0.0 0
M  V30 5 C 3.4641 1.5 0.0 0
M  V30 6 C 2.598 0.0 0.0 0 CFG=2
M  V30 7 C 2.598 3.0 0.0 0
M  V30 8 C 0.866 2.9999 0.0 0
M  V30 9 O 4.3301 1.0 0.0 0
M  V30 10 C 3.4641 2.5 0.0 0
M  V30 11 C 1.732 -0.5 0.0 0
M  V30 12 C 3.4641 -0.5 0.0 0
M  V30 13 N 2.8059 3.9781 0.0 0
M  V30 14 N 4.2072 3.1691 0.0 0
M  V30 15 O 1.732 -1.5 0.0 0
M  V30 16 O 0.866 0.0 0.0 0
M  V30 17 C 4.3301 0.0 0.0 0
M  V30 18 C 3.4641 -1.5 0.0 0
M  V30 19 C 3.8005 4.0826 0.0 0
M  V30 20 C 5.2017 3.2736 0.0 0
M  V30 21 C 0.0 -0.5 0.0 0
M  V30 22 N 4.5436 4.7518 0.0 0
M  V30 23 C 5.4096 4.2518 0.0 0
M  V30 24 C 4.4391 5.7463 0.0 0
M  V30 25 C 6.3232 4.6585 0.0 0
M  V30 26 C 5.2481 6.3341 0.0 0
M  V30 27 C 3.5255 6.153 0.0 0
M  V30 28 C 5.1436 7.3286 0.0 0
M  V30 29 C 6.1616 5.9273 0.0 0
M  V30 30 C 3.421 7.1475 0.0 0
M  V30 31 C 4.23 7.7353 0.0 0
M  V30 32 C 6.9707 6.5151 0.0 0
M  V30 END ATOM
M  V30 BEGIN BOND
M  V30 1 2 1 2
M  V30 2 1 2 3
M  V30 3 1 2 4
M  V30 4 1 3 5
M  V30 5 1 6 3 CFG=1
M  V30 6 1 4 7
M  V30 7 1 4 8
M  V30 8 2 5 9
M  V30 9 1 5 10
M  V30 10 1 6 11
M  V30 11 1 6 12
M  V30 12 1 7 13
M  V30 13 1 10 14
M  V30 14 2 11 15
M  V30 15 1 11 16
M  V30 16 1 12 17
M  V30 17 1 12 18
M  V30 18 2 13 19
M  V30 19 1 14 20
M  V30 20 1 16 21
M  V30 21 1 19 22
M  V30 22 2 20 23
M  V30 23 1 22 24
M  V30 24 1 23 25
M  V30 25 2 24 26
M  V30 26 1 24 27
M  V30 27 1 26 28
M  V30 28 1 26 29
M  V30 29 2 27 30
M  V30 30 2 28 31
M  V30 31 1 29 32
M  V30 32 2 7 10
M  V30 33 1 14 19
M  V30 34 1 22 23
M  V30 35 1 30 31
M  V30 END BOND
M  V30 BEGIN COLLECTION
M  V30 MDLV30/STERAC1 ATOMS=(1 6)
M  V30 END COLLECTION
M  V30 END CTAB
M  END
>  <Rack>
PathogenBox_PlateE

>  <Position>
H10

>  <Compound ID>
MMV688550

>  <Disease Set>
KINETOPLASTIDS

>  <Trivial Name>


>  <Total Molecular Weight>
437.49

>  <Molecular Weight Parent Molecule>
437.49

>  <Molecular Formula>
C23H27N5O4

>  <Salt Name>


>  <Salt Coefficient>


>  <cLogP>
2.66

>  <SMILES>
CCc1ccccc1n2c(C)cn3c4C(=O)N(C(C(C)C)C(=O)OC)C(=O)N(C)c4nc23

$$$$
Compound 400
Actelion Java MolfileCreator 2.0

  0  0  0  0  0  0              0 V3000
M  V30 BEGIN CTAB
M  V30 COUNTS 19 20 0 0 0
M  V30 BEGIN ATOM
M  V30 1 S 2.7026 0.9945 0.0 0
M  V30 2 C 2.598 0.0 0.0 0
M  V30 3 C 3.6807 1.2024 0.0 0
M  V30 4 N 3.5116 -0.4067 0.0 0
M  V30 5 N 1.732 -0.5 0.0 0
M  V30 6 C 4.1807 0.3364 0.0 0
M  V30 7 C 4.0874 2.1159 0.0 0
M  V30 8 C 0.866 0.0 0.0 0
M  V30 9 C 3.1739 2.5227 0.0 0
M  V30 10 C 4.4942 3.0295 0.0 0
M  V30 11 C 5.001 1.7092 0.0 0
M  V30 12 O 0.866 1.0 0.0 0
M  V30 13 C 0.0 -0.5 0.0 0
M  V30 14 C -0.866 0.0 0.0 0
M  V30 15 C 0.0 -1.4999 0.0 0
M  V30 16 O -0.866 1.0 0.0 0
M  V30 17 C -1.732 -0.4999 0.0 0
M  V30 18 C -0.866 -1.9999 0.0 0
M  V30 19 C -1.732 -1.4999 0.0 0
M  V30 END ATOM
M  V30 BEGIN BOND
M  V30 1 1 1 2
M  V30 2 1 1 3
M  V30 3 2 2 4
M  V30 4 1 2 5
M  V30 5 2 3 6
M  V30 6 1 3 7
M  V30 7 1 5 8
M  V30 8 1 7 9
M  V30 9 1 7 10
M  V30 10 1 7 11
M  V30 11 2 8 12
M  V30 12 1 8 13
M  V30 13 2 13 14
M  V30 14 1 13 15
M  V30 15 1 14 16
M  V30 16 1 14 17
M  V30 17 2 15 18
M  V30 18 2 17 19
M  V30 19 1 4 6
M  V30 20 1 18 19
M  V30 END BOND
M  V30 END CTAB
M  END
>  <Rack>
PathogenBox_PlateE

>  <Position>
H11

>  <Compound ID>
MMV495543

>  <Disease Set>
TUBERCULOSIS

>  <Trivial Name>


>  <Total Molecular Weight>
276.36

>  <Molecular Weight Parent Molecule>
276.36

>  <Molecular Formula>
C14H16N2O2S

>  <Salt Name>


>  <Salt Coefficient>


>  <cLogP>
3.75

>  <SMILES>
CC(C)(C)c1cnc(NC(=O)c2ccccc2O)s1

$$$$
