obj01
  PyMOL2.4          3D                             0

 12 12  0  0  0  0  0  0  0  0999 V2000
  100.1190   17.1820  116.0110 O   0  0  0  0  0  0  0  0  0  0  0  0
  105.3450   16.7900  111.5970 O   0  0  0  0  0  0  0  0  0  0  0  0
  100.9110   18.3610  116.0950 C   0  0  0  0  0  0  0  0  0  0  0  0
  106.6010   18.5750  112.6790 O   0  0  0  0  0  0  0  0  0  0  0  0
  102.1000   18.2050  115.1360 C   0  0  0  0  0  0  0  0  0  0  0  0
  106.7580   16.2780  113.4850 O   0  0  0  0  0  0  0  0  0  0  0  0
  102.8960   16.9810  115.4530 N   0  0  0  0  0  0  0  0  0  0  0  0
  102.0260   15.8020  115.5190 C   0  0  0  0  0  0  0  0  0  0  0  0
  100.8480   16.0310  116.4600 C   0  0  0  0  0  0  0  0  0  0  0  0
  103.8450   16.6450  114.3710 C   0  0  0  0  0  0  0  0  0  0  0  0
  104.7220   17.8020  113.9520 C   0  0  0  0  0  0  0  0  0  0  0  0
  105.8970   17.3050  112.8630 S   0  0  0  0  0  0  0  0  0  0  0  0
  1  3  1  0  0  0  0
  1  9  1  0  0  0  0
  3  5  1  0  0  0  0
  5  7  1  0  0  0  0
  7  8  1  0  0  0  0
  7 10  1  0  0  0  0
  8  9  1  0  0  0  0
 10 11  1  0  0  0  0
 11 12  1  0  0  0  0
  2 12  1  0  0  0  0
  4 12  2  0  0  0  0
  6 12  2  0  0  0  0
M  END
$$$$
