obj01
  PyMOL2.4          3D                             0

 41 45  0  0  0  0  0  0  0  0999 V2000
  -18.8790   48.2800   -1.5950 C   0  0  0  0  0  0  0  0  0  0  0  0
  -18.0070   47.4220   -0.6840 C   0  0  0  0  0  0  0  0  0  0  0  0
  -16.6160   47.2480   -1.2860 C   0  0  0  0  0  0  0  0  0  0  0  0
  -17.9410   48.1120    0.8370 S   0  0  0  0  0  0  0  0  0  0  0  0
  -18.7360   49.3060    0.8490 O   0  0  0  0  0  0  0  0  0  0  0  0
  -18.4780   47.1900    1.7970 O   0  0  0  0  0  0  0  0  0  0  0  0
  -16.4480   48.4900    1.2650 C   0  0  0  0  0  0  0  0  0  0  0  0
  -15.9680   49.7790    1.0650 C   0  0  0  0  0  0  0  0  0  0  0  0
  -14.6700   50.1050    1.4410 C   0  0  0  0  0  0  0  0  0  0  0  0
  -13.8350   49.1550    2.0240 C   0  0  0  0  0  0  0  0  0  0  0  0
  -14.2740   47.8540    2.2510 C   0  0  0  0  0  0  0  0  0  0  0  0
  -15.5620   47.4730    1.8870 C   0  0  0  0  0  0  0  0  0  0  0  0
  -16.0490   46.2200    2.0800 N   0  0  0  0  0  0  0  0  0  0  0  0
  -15.3060   45.1060    2.2870 C   0  0  0  0  0  0  0  0  0  0  0  0
  -15.8300   44.0930    3.0020 N   0  0  0  0  0  0  0  0  0  0  0  0
  -15.1200   42.9790    3.2090 C   0  0  0  0  0  0  0  0  0  0  0  0
  -13.8900   42.8460    2.7050 N   0  0  0  0  0  0  0  0  0  0  0  0
  -13.3450   43.8450    1.9830 C   0  0  0  0  0  0  0  0  0  0  0  0
  -14.0710   44.9620    1.7630 N   0  0  0  0  0  0  0  0  0  0  0  0
  -12.1000   43.6830    1.4680 N   0  0  0  0  0  0  0  0  0  0  0  0
  -11.2060   44.6770    1.2490 C   0  0  0  0  0  0  0  0  0  0  0  0
  -11.5590   45.8710    0.6270 C   0  0  0  0  0  0  0  0  0  0  0  0
  -10.6110   46.8620    0.4100 C   0  0  0  0  0  0  0  0  0  0  0  0
   -9.2860   46.6770    0.7860 C   0  0  0  0  0  0  0  0  0  0  0  0
   -8.8730   45.4980    1.4050 C   0  0  0  0  0  0  0  0  0  0  0  0
   -9.7890   44.4800    1.6420 C   0  0  0  0  0  0  0  0  0  0  0  0
   -9.4030   43.3100    2.2450 O   0  0  0  0  0  0  0  0  0  0  0  0
   -8.0220   42.9570    2.3130 C   0  0  0  0  0  0  0  0  0  0  0  0
   -8.3680   47.7060    0.5540 N   0  0  0  0  0  0  0  0  0  0  0  0
   -8.8160   49.0920    0.5890 C   0  0  0  0  0  0  0  0  0  0  0  0
   -7.5510   49.9400    0.6790 C   0  0  0  0  0  0  0  0  0  0  0  0
   -6.6210   49.4280    1.7780 C   0  0  0  0  0  0  0  0  0  0  0  0
   -6.2530   47.9630    1.5130 C   0  0  0  0  0  0  0  0  0  0  0  0
   -6.9740   47.3920    0.2960 C   0  0  0  0  0  0  0  0  0  0  0  0
   -7.2590   49.6330    3.0990 N   0  0  0  0  0  0  0  0  0  0  0  0
   -6.5640   50.7300    3.8010 C   0  0  0  0  0  0  0  0  0  0  0  0
   -7.1090   50.8930    5.2190 C   0  0  0  0  0  0  0  0  0  0  0  0
   -7.0690   49.6200    5.9720 N   0  0  0  0  0  0  0  0  0  0  0  0
   -6.4730   48.5270    5.1870 C   0  0  0  0  0  0  0  0  0  0  0  0
   -7.2790   48.3890    3.9000 C   0  0  0  0  0  0  0  0  0  0  0  0
   -6.3100   49.7920    7.2210 C   0  0  0  0  0  0  0  0  0  0  0  0
  1  2  1  0  0  0  0
  2  3  1  0  0  0  0
  2  4  1  0  0  0  0
  4  5  2  0  0  0  0
  4  6  2  0  0  0  0
  4  7  1  0  0  0  0
  7  8  4  0  0  0  0
  8  9  4  0  0  0  0
  9 10  4  0  0  0  0
 10 11  4  0  0  0  0
 11 12  4  0  0  0  0
  7 12  4  0  0  0  0
 12 13  1  0  0  0  0
 13 14  1  0  0  0  0
 14 15  4  0  0  0  0
 14 19  4  0  0  0  0
 15 16  4  0  0  0  0
 16 17  4  0  0  0  0
 17 18  4  0  0  0  0
 18 19  4  0  0  0  0
 18 20  1  0  0  0  0
 20 21  1  0  0  0  0
 21 22  4  0  0  0  0
 21 26  4  0  0  0  0
 22 23  4  0  0  0  0
 23 24  4  0  0  0  0
 24 25  4  0  0  0  0
 24 29  1  0  0  0  0
 25 26  4  0  0  0  0
 26 27  1  0  0  0  0
 27 28  1  0  0  0  0
 29 30  1  0  0  0  0
 30 31  1  0  0  0  0
 31 32  1  0  0  0  0
 32 33  1  0  0  0  0
 32 35  1  0  0  0  0
 33 34  1  0  0  0  0
 29 34  1  0  0  0  0
 35 36  1  0  0  0  0
 36 37  1  0  0  0  0
 37 38  1  0  0  0  0
 38 39  1  0  0  0  0
 39 40  1  0  0  0  0
 35 40  1  0  0  0  0
 38 41  1  0  0  0  0
M  END
$$$$
