obj01
  PyMOL2.4          3D                             0

 12 12  0  0  0  0  0  0  0  0999 V2000
  -56.9660   20.2290  -64.5270 C   0  0  0  0  0  0  0  0  0  0  0  0
  -58.0600   21.0340  -64.7910 O   0  0  0  0  0  0  0  0  0  0  0  0
  -57.5880   18.8110  -64.5700 C   0  0  0  0  0  0  0  0  0  0  0  0
  -58.4460   18.6590  -63.4870 O   0  0  0  0  0  0  0  0  0  0  0  0
  -56.3990   17.8700  -64.3490 C   0  0  0  0  0  0  0  0  0  0  0  0
  -56.7780   16.5350  -64.4150 O   0  0  0  0  0  0  0  0  0  0  0  0
  -55.4280   18.0920  -65.5300 C   0  0  0  0  0  0  0  0  0  0  0  0
  -54.2960   17.3090  -65.3330 O   0  0  0  0  0  0  0  0  0  0  0  0
  -54.9430   19.5670  -65.4740 C   0  0  0  0  0  0  0  0  0  0  0  0
  -56.0610   20.4200  -65.5930 O   0  0  0  0  0  0  0  0  0  0  0  0
  -54.0120   19.7400  -66.6870 C   0  0  0  0  0  0  0  0  0  0  0  0
  -53.6420   21.0840  -66.7430 O   0  0  0  0  0  0  0  0  0  0  0  0
  1  2  1  0  0  0  0
  1 10  1  0  0  0  0
  1  3  1  0  0  0  0
  3  4  1  0  0  0  0
  3  5  1  0  0  0  0
  5  6  1  0  0  0  0
  5  7  1  0  0  0  0
  7  8  1  0  0  0  0
  7  9  1  0  0  0  0
  9 10  1  0  0  0  0
  9 11  1  0  0  0  0
 11 12  1  0  0  0  0
M  END
$$$$
