obj01
  PyMOL2.4          3D                             0

 21 22  0  0  0  0  0  0  0  0999 V2000
   38.6780   18.0040    1.6820 P   0  0  0  0  0  0  0  0  0  0  0  0
   38.8410   19.3100    1.0010 O   0  0  0  0  0  0  0  0  0  0  0  0
   37.4070   17.2280    1.4710 O   0  5  0  0  0  0  0  0  0  0  0  0
   39.8720   17.1190    1.3280 O   0  0  0  0  0  0  0  0  0  0  0  0
   38.2880   19.5660    3.7500 C   0  0  0  0  0  0  0  0  0  0  0  0
   38.7570   18.3260    3.2380 O   0  0  0  0  0  0  0  0  0  0  0  0
   37.6590   19.4010    5.1100 C   0  0  0  0  0  0  0  0  0  0  0  0
   38.4060   20.1930    6.0730 O   0  0  0  0  0  0  0  0  0  0  0  0
   36.2200   19.8870    5.2050 C   0  0  0  0  0  0  0  0  0  0  0  0
   35.5550   19.2020    6.2660 O   0  0  0  0  0  0  0  0  0  0  0  0
   36.4050   21.3480    5.5830 C   0  0  0  0  0  0  0  0  0  0  0  0
   35.2800   21.9450    6.1870 O   0  0  0  0  0  0  0  0  0  0  0  0
   37.5960   21.2620    6.5430 C   0  0  0  0  0  0  0  0  0  0  0  0
   38.4210   22.4760    6.5940 N   0  0  0  0  0  0  0  0  0  0  0  0
   39.0720   23.0480    5.3500 C   0  0  0  0  0  0  0  0  0  0  0  0
   38.9370   22.5270    4.2360 O   0  0  0  0  0  0  0  0  0  0  0  0
   39.9190   24.2990    5.4570 N   0  0  0  0  0  0  0  0  0  0  0  0
   40.0940   24.9310    6.7600 C   0  0  0  0  0  0  0  0  0  0  0  0
   40.7580   25.9080    6.8430 O   0  0  0  0  0  0  0  0  0  0  0  0
   39.4540   24.3610    7.9800 C   0  0  0  0  0  0  0  0  0  0  0  0
   38.6130   23.1190    7.8760 C   0  0  0  0  0  0  0  0  0  0  0  0
  1  2  1  0  0  0  0
  1  3  1  0  0  0  0
  1  4  2  0  0  0  0
  5  6  1  0  0  0  0
  1  6  1  0  0  0  0
  5  7  1  0  0  0  0
  7  8  1  0  0  0  0
  7  9  1  0  0  0  0
  9 10  1  0  0  0  0
  9 11  1  0  0  0  0
 11 12  1  0  0  0  0
  8 13  1  0  0  0  0
 11 13  1  0  0  0  0
 13 14  1  0  0  0  0
 14 15  4  0  0  0  0
 14 21  4  0  0  0  0
 15 16  2  0  0  0  0
 15 17  4  0  0  0  0
 17 18  4  0  0  0  0
 18 19  2  0  0  0  0
 18 20  4  0  0  0  0
 20 21  4  0  0  0  0
M  END
$$$$
