obj01
  PyMOL2.4          3D                             0

 27 29  0  0  0  0  0  0  0  0999 V2000
   69.5710  -21.3380   17.5420 P   0  0  0  0  0  0  0  0  0  0  0  0
   67.6300  -19.3220   16.8890 P   0  0  0  0  0  0  0  0  0  0  0  0
   71.6810  -19.8020   17.2280 C   0  0  0  0  0  0  0  0  0  0  0  0
   70.8000  -20.7720   16.6740 O   0  0  0  0  0  0  0  0  0  0  0  0
   72.2580  -18.9310   16.1200 C   0  0  0  0  0  0  0  0  0  0  0  0
   73.2230  -19.6400   15.3420 O   0  0  0  0  0  0  0  0  0  0  0  0
   71.2170  -18.4870   15.1060 C   0  0  0  0  0  0  0  0  0  0  0  0
   70.5400  -17.3070   15.5240 O   0  0  0  0  0  0  0  0  0  0  0  0
   72.0620  -18.1790   13.8990 C   0  0  0  0  0  0  0  0  0  0  0  0
   72.5450  -16.8440   14.0430 O   0  0  0  0  0  0  0  0  0  0  0  0
   73.2290  -19.1370   14.0050 C   0  0  0  0  0  0  0  0  0  0  0  0
   73.3810  -20.7920    9.0370 N   0  0  0  0  0  0  0  0  0  0  0  0
   68.7710  -22.2620   16.6530 O   0  5  0  0  0  0  0  0  0  0  0  0
   67.1750  -20.3970   15.9270 O   0  0  0  0  0  0  0  0  0  0  0  0
   73.7790  -19.6230    9.5780 C   0  0  0  0  0  0  0  0  0  0  0  0
   70.1620  -21.8760   18.8220 O   0  0  0  0  0  0  0  0  0  0  0  0
   68.4170  -18.2020   16.2730 O   0  5  0  0  0  0  0  0  0  0  0  0
   73.6850  -19.3250   10.8860 N   0  0  0  0  0  0  0  0  0  0  0  0
   68.6810  -20.0360   17.8920 O   0  0  0  0  0  0  0  0  0  0  0  0
   66.5500  -18.8710   17.8340 O   0  0  0  0  0  0  0  0  0  0  0  0
   73.1600  -20.2230   11.7580 C   0  0  0  0  0  0  0  0  0  0  0  0
   72.7050  -21.5250   11.2530 C   0  0  0  0  0  0  0  0  0  0  0  0
   72.8450  -21.7720    9.7990 C   0  0  0  0  0  0  0  0  0  0  0  0
   72.4430  -22.9430    9.2570 N   0  0  0  0  0  0  0  0  0  0  0  0
   72.2420  -22.2130   12.3130 N   0  0  0  0  0  0  0  0  0  0  0  0
   72.3840  -21.4210   13.4040 C   0  0  0  0  0  0  0  0  0  0  0  0
   72.9360  -20.2390   13.0710 N   0  0  0  0  0  0  0  0  0  0  0  0
  1  4  1  0  0  0  0
  1 13  1  0  0  0  0
  1 16  2  0  0  0  0
  1 19  1  0  0  0  0
  2 14  1  0  0  0  0
  2 17  1  0  0  0  0
  2 19  1  0  0  0  0
  2 20  2  0  0  0  0
  3  5  1  0  0  0  0
  3  4  1  0  0  0  0
  5  6  1  0  0  0  0
  5  7  1  0  0  0  0
  6 11  1  0  0  0  0
  7  8  1  0  0  0  0
  7  9  1  0  0  0  0
  9 10  1  0  0  0  0
  9 11  1  0  0  0  0
 11 27  1  0  0  0  0
 12 15  4  0  0  0  0
 15 18  4  0  0  0  0
 18 21  4  0  0  0  0
 21 22  4  0  0  0  0
 22 23  4  0  0  0  0
 12 23  4  0  0  0  0
 23 24  1  0  0  0  0
 22 25  4  0  0  0  0
 25 26  4  0  0  0  0
 21 27  4  0  0  0  0
 26 27  4  0  0  0  0
M  END
$$$$
