obj01
  PyMOL2.4          3D                             0

 59 65  0  0  0  0  0  0  0  0999 V2000
   16.4630    3.5060   26.2240 C   0  0  0  0  0  0  0  0  0  0  0  0
   16.6440    2.1420   25.5490 C   0  0  0  0  0  0  0  0  0  0  0  0
   15.1520    5.6260   26.2430 C   0  0  0  0  0  0  0  0  0  0  0  0
   17.4620    1.1940   26.3370 C   0  0  0  0  0  0  0  0  0  0  0  0
   18.7850    1.5160   26.7320 C   0  0  0  0  0  0  0  0  0  0  0  0
   16.9270   -0.0350   26.7130 C   0  0  0  0  0  0  0  0  0  0  0  0
   19.5410    0.6120   27.4770 C   0  0  0  0  0  0  0  0  0  0  0  0
   17.7030   -0.9480   27.4690 C   0  0  0  0  0  0  0  0  0  0  0  0
   19.0050   -0.6170   27.8480 C   0  0  0  0  0  0  0  0  0  0  0  0
   15.5730    4.4430   25.3760 C   0  0  0  0  0  0  0  0  0  0  0  0
   15.2530    6.7580   25.3480 N   0  0  0  0  0  0  0  0  0  0  0  0
   14.3600    3.7610   24.9360 O   0  0  0  0  0  0  0  0  0  0  0  0
   16.5070    7.3490   25.2200 C   0  0  0  0  0  0  0  0  0  0  0  0
   15.8470    3.2740   27.4810 N   0  0  0  0  0  0  0  0  0  0  0  0
   17.5090    6.9460   25.8470 O   0  0  0  0  0  0  0  0  0  0  0  0
   13.9810    7.1610   24.7140 C   0  0  0  0  0  0  0  0  0  0  0  0
   18.0300   10.1560   23.2990 N   0  0  0  0  0  0  0  0  0  0  0  0
   17.5010    4.0060   28.9210 O   0  0  0  0  0  0  0  0  0  0  0  0
   12.8890    7.8540   25.4830 C   0  0  0  0  0  0  0  0  0  0  0  0
   18.3340    9.6180   21.0330 O   0  0  0  0  0  0  0  0  0  0  0  0
   16.3630    3.5190   28.6840 C   0  0  0  0  0  0  0  0  0  0  0  0
   14.7260   11.6960   29.2300 O   0  0  0  0  0  0  0  0  0  0  0  0
   16.6400    8.5230   24.2760 C   0  0  0  0  0  0  0  0  0  0  0  0
   13.0330    4.8670   31.8280 O   0  0  0  0  0  0  0  0  0  0  0  0
   18.0540    8.8160   23.8970 C   0  0  0  0  0  0  0  0  0  0  0  0
   17.7190   11.5270   25.1660 O   0  0  0  0  0  0  0  0  0  0  0  0
   14.8470   12.7640   28.3590 C   0  0  0  0  0  0  0  0  0  0  0  0
   14.4950   12.4250   27.0710 O   0  0  0  0  0  0  0  0  0  0  0  0
   17.8710   11.3790   23.9420 C   0  0  0  0  0  0  0  0  0  0  0  0
   14.5910    0.0730   31.3870 O   0  0  0  0  0  0  0  0  0  0  0  0
   18.0360   14.0790   20.7740 C   0  0  0  0  0  0  0  0  0  0  0  0
   13.1010    1.9350   32.8860 O   0  0  0  0  0  0  0  0  0  0  0  0
   13.5390    8.4290   27.8240 C   0  0  0  0  0  0  0  0  0  0  0  0
   13.7290    2.3970   31.7360 C   0  0  0  0  0  0  0  0  0  0  0  0
   18.5030    2.5280   34.4360 C   0  0  0  0  0  0  0  0  0  0  0  0
   18.0910   11.8500   21.7750 C   0  0  0  0  0  0  0  0  0  0  0  0
   14.2970   10.6790   28.4880 C   0  0  0  0  0  0  0  0  0  0  0  0
   15.4230    1.8130   30.0800 C   0  0  0  0  0  0  0  0  0  0  0  0
   16.4830    1.1740   34.4730 C   0  0  0  0  0  0  0  0  0  0  0  0
   17.9010   12.4110   23.0450 C   0  0  0  0  0  0  0  0  0  0  0  0
   14.1440   11.1080   27.1360 C   0  0  0  0  0  0  0  0  0  0  0  0
   15.4930    3.1690   29.6790 C   0  0  0  0  0  0  0  0  0  0  0  0
   15.6580    2.2760   34.1650 C   0  0  0  0  0  0  0  0  0  0  0  0
   18.1650   12.6610   20.6020 C   0  0  0  0  0  0  0  0  0  0  0  0
   14.0010    9.3490   28.8450 C   0  0  0  0  0  0  0  0  0  0  0  0
   14.5570    1.4270   31.0820 C   0  0  0  0  0  0  0  0  0  0  0  0
   17.8860    1.2940   34.6080 C   0  0  0  0  0  0  0  0  0  0  0  0
   17.8360   14.6480   22.1080 C   0  0  0  0  0  0  0  0  0  0  0  0
   13.3760    8.8300   26.4710 C   0  0  0  0  0  0  0  0  0  0  0  0
   13.7780    3.7790   31.3220 C   0  0  0  0  0  0  0  0  0  0  0  0
   17.7210    3.6710   34.1240 C   0  0  0  0  0  0  0  0  0  0  0  0
   18.1660   10.4640   21.9540 C   0  0  0  0  0  0  0  0  0  0  0  0
   13.6030    5.9800   32.4780 C   0  0  0  0  0  0  0  0  0  0  0  0
   17.7690   13.8100   23.2520 C   0  0  0  0  0  0  0  0  0  0  0  0
   13.6790   10.1710   26.1190 C   0  0  0  0  0  0  0  0  0  0  0  0
   14.6670    4.1540   30.2950 C   0  0  0  0  0  0  0  0  0  0  0  0
   16.3070    3.5460   33.9900 C   0  0  0  0  0  0  0  0  0  0  0  0
   14.0770    2.1030   34.0090 C   0  0  0  0  0  0  0  0  0  0  0  0
   14.2230   -0.9430   30.4990 C   0  0  0  0  0  0  0  0  0  0  0  0
  1  2  1  0  0  0  0
  1 10  1  0  0  0  0
  1 14  1  0  0  0  0
  2  4  1  0  0  0  0
  3 11  1  0  0  0  0
  4  5  4  0  0  0  0
  4  6  4  0  0  0  0
  5  7  4  0  0  0  0
  6  8  4  0  0  0  0
  7  9  4  0  0  0  0
  8  9  4  0  0  0  0
  3 10  1  0  0  0  0
 10 12  1  0  0  0  0
 11 13  1  0  0  0  0
 11 16  1  0  0  0  0
 13 15  2  0  0  0  0
 13 23  1  0  0  0  0
 14 21  1  0  0  0  0
 16 19  1  0  0  0  0
 17 29  4  0  0  0  0
 19 49  1  0  0  0  0
 18 21  2  0  0  0  0
 21 42  1  0  0  0  0
 22 27  4  0  0  0  0
 23 25  1  0  0  0  0
 24 53  1  0  0  0  0
 17 25  1  0  0  0  0
 27 28  4  0  0  0  0
 26 29  2  0  0  0  0
 30 59  1  0  0  0  0
 31 44  4  0  0  0  0
 31 48  4  0  0  0  0
 32 58  1  0  0  0  0
 33 45  4  0  0  0  0
 33 49  4  0  0  0  0
 32 34  1  0  0  0  0
 34 46  4  0  0  0  0
 34 50  4  0  0  0  0
 35 47  4  0  0  0  0
 35 51  4  0  0  0  0
 36 40  4  0  0  0  0
 36 52  4  0  0  0  0
 22 37  4  0  0  0  0
 37 41  4  0  0  0  0
 38 42  4  0  0  0  0
 39 43  4  0  0  0  0
 29 40  4  0  0  0  0
 40 54  4  0  0  0  0
 28 41  4  0  0  0  0
 41 55  4  0  0  0  0
 42 56  4  0  0  0  0
 43 57  4  0  0  0  0
 36 44  4  0  0  0  0
 37 45  4  0  0  0  0
 30 46  1  0  0  0  0
 38 46  4  0  0  0  0
 39 47  4  0  0  0  0
 24 50  1  0  0  0  0
 17 52  4  0  0  0  0
 20 52  2  0  0  0  0
 48 54  4  0  0  0  0
 49 55  4  0  0  0  0
 50 56  4  0  0  0  0
 51 57  4  0  0  0  0
 43 58  1  0  0  0  0
M  END
$$$$
